@<TRIPOS>MOLECULE
ZINC02102770
   43    45     0     0     0
SMALL
USER_CHARGES
2-[carboxymethyl-[2-(dimethyl-oxo-BLAHyl)acetyl]-amino]acetic acid
@<TRIPOS>ATOM
      1 C1         -0.0675    0.9216   -5.6766 C.3       1 <0>        -0.0841
      2 C2         -0.0431   -0.4651   -5.0872 C.2       1 <0>        -0.1647
      3 C3         -0.0350   -1.6237   -5.7578 C.2       1 <0>        -0.0063
      4 O1         -0.0128   -2.6591   -4.8997 O.3       1 <0>        -0.1925
      5 C4         -0.0053   -2.2269   -3.6220 C.ar      1 <0>         0.0982
      6 C5         -0.0240   -0.8176   -3.6606 C.ar      1 <0>        -0.1522
      7 C6         -0.0214   -0.0814   -2.4842 C.ar      1 <0>        -0.0069
      8 C7         -0.0059   -0.7502   -1.2601 C.ar      1 <0>        -0.1355
      9 C8          0.0021   -0.0041    0.0020 C.2       1 <0>         0.0173
     10 C9          0.0226   -0.7072    1.1627 C.2       1 <0>        -0.1678
     11 C10         0.0410   -2.1177    1.1286 C.2       1 <0>         0.5211
     12 O2          0.0594   -2.7357    2.1777 O.2       1 <0>        -0.4371
     13 O3          0.0384   -2.7963   -0.0289 O.3       1 <0>        -0.2731
     14 C11         0.0184   -2.1598   -1.2217 C.ar      1 <0>         0.1747
     15 C12         0.0157   -2.8844   -2.4010 C.ar      1 <0>        -0.1337
     16 C13         0.0253    0.0166    2.4845 C.3       1 <0>        -0.0893
     17 C14        -1.3944    0.2386    2.9386 C.2       1 <0>         0.5316
     18 O4         -2.3175   -0.1525    2.2561 O.2       1 <0>        -0.5686
     19 N1         -1.6383    0.8716    4.1032 N.am      1 <0>        -0.5513
     20 C15        -0.5232    1.3440    4.9276 C.3       1 <0>         0.0682
     21 C16        -0.1643    2.7521    4.5281 C.2       1 <0>         0.4510
     22 O5         -0.7770    3.3043    3.6452 O.co2     1 <0>        -0.6279
     23 C17        -3.0184    1.0874    4.5446 C.3       1 <0>         0.0843
     24 C18        -3.4682   -0.0847    5.3782 C.2       1 <0>         0.4552
     25 O6         -2.7134   -1.0057    5.5827 O.co2     1 <0>        -0.6287
     26 C19        -0.0184    1.5028    0.0103 C.3       1 <0>        -0.1287
     27 H1         -1.1009    1.2423   -5.8083 H         1 <0>         0.0717
     28 H2          0.4440    1.6110   -5.0049 H         1 <0>         0.0709
     29 H3          0.4366    0.9146   -6.6430 H         1 <0>         0.0678
     30 H4         -0.0449   -1.7141   -6.8340 H         1 <0>         0.2065
     31 H5         -0.0358    0.9980   -2.5161 H         1 <0>         0.1460
     32 H6          0.0296   -3.9639   -2.3703 H         1 <0>         0.1495
     33 H7          0.5544   -0.5824    3.2257 H         1 <0>         0.1081
     34 H8          0.5251    0.9786    2.3710 H         1 <0>         0.1115
     35 H9         -0.8152    1.3276    5.9777 H         1 <0>         0.0825
     36 H10         0.3389    0.6935    4.7800 H         1 <0>         0.0770
     37 H11        -3.0711    1.9986    5.1405 H         1 <0>         0.0759
     38 H12        -3.6673    1.1845    3.6742 H         1 <0>         0.0815
     39 H13         1.0042    1.8801    0.0026 H         1 <0>         0.0880
     40 H14        -0.5455    1.8639   -0.8728 H         1 <0>         0.0748
     41 H15        -0.5286    1.8543    0.9071 H         1 <0>         0.0983
     42 O7          0.8361    3.3927    5.1529 O.co2     1 <0>        -0.7777
     43 O8         -4.7075   -0.1054    5.8936 O.co2     1 <0>        -0.7852
@<TRIPOS>BOND
     1    1    2 1
     2    1   27 1
     3    1   28 1
     4    1   29 1
     5    2    6 1
     6    2    3 2
     7    3    4 1
     8    3   30 1
     9    4    5 1
    10    5   15 ar
    11    5    6 ar
    12    6    7 ar
    13    7    8 ar
    14    7   31 1
    15    8   14 ar
    16    8    9 1
    17    9   10 2
    18    9   26 1
    19   10   11 1
    20   10   16 1
    21   11   12 2
    22   11   13 1
    23   13   14 1
    24   14   15 ar
    25   15   32 1
    26   16   17 1
    27   16   33 1
    28   16   34 1
    29   17   18 2
    30   17   19 am
    31   19   20 1
    32   19   23 1
    33   20   21 1
    34   20   35 1
    35   20   36 1
    36   21   22 2
    37   21   42 1
    38   23   24 1
    39   23   37 1
    40   23   38 1
    41   24   25 2
    42   24   43 1
    43   26   39 1
    44   26   40 1
    45   26   41 1
@<TRIPOS>MOLECULE
ZINC17173550
   26    27     0     0     0
SMALL
USER_CHARGES
(3R)-5-oxo-2-[(3S)-5-oxo-3-sulfo-tetrahydrofuran-2-ylidene]tetrahydrofuran-3-sulfonic acid
@<TRIPOS>ATOM
      1 C1          1.7727    7.3247   -0.3952 C.3       1 <0>        -0.1417
      2 C2          0.4968    6.4693   -0.2589 C.3       1 <0>        -0.6271
      3 H1         -0.1297    6.8412    0.5517 H         1 <0>         0.1481
      4 C3          1.0281    5.0904    0.0680 C.2       1 <0>         0.0652
      5 C4          0.2907    4.0131    0.2764 C.2       1 <0>         0.0648
      6 C5         -0.9591    3.6415   -0.4917 C.3       1 <0>        -0.6485
      7 H2         -1.7264    4.4059   -0.3691 H         1 <0>         0.1978
      8 C6         -1.3977    2.3117    0.1543 C.3       1 <0>        -0.1510
      9 C7         -0.3569    2.0732    1.2257 C.2       1 <0>         0.5017
     10 O1         -0.3316    1.1236    1.9787 O.2       1 <0>        -0.4707
     11 O2          0.5312    3.0667    1.2091 O.3       1 <0>        -0.2671
     12 S1         -0.5796    3.3965   -2.2486 S.o2      1 <0>         2.6395
     13 O3         -1.7744    3.4321   -3.0170 O.2       1 <0>        -1.0249
     14 O4          0.5446    4.1820   -2.6206 O.2       1 <0>        -1.0086
     15 O5          2.3766    5.1395    0.1183 O.3       1 <0>        -0.2551
     16 C8          2.8926    6.3426   -0.1316 C.2       1 <0>         0.5021
     17 O6          4.0750    6.6093   -0.1416 O.2       1 <0>        -0.4666
     18 S2         -0.4252    6.4444   -1.8210 S.o2      1 <0>         2.6251
     19 O7          0.4668    6.2690   -2.9131 O.2       1 <0>        -0.9656
     20 O8         -1.5828    5.6303   -1.6931 O.2       1 <0>        -1.0456
     21 H3          1.8526    7.7357   -1.4016 H         1 <0>         0.1312
     22 H4          1.7789    8.1242    0.3456 H         1 <0>         0.1204
     23 H5         -1.3849    1.5049   -0.5786 H         1 <0>         0.1407
     24 H6         -2.3883    2.4119    0.5980 H         1 <0>         0.1166
     25 O9         -0.0970    1.9565   -2.3474 O.3       1 <0>        -1.0981
     26 O10        -0.9616    7.8598   -1.9811 O.3       1 <0>        -1.0826
@<TRIPOS>BOND
     1    1   16 1
     2    1    2 1
     3    1   21 1
     4    1   22 1
     5    2    3 1
     6    2    4 1
     7    2   18 1
     8    4    5 2
     9    4   15 1
    10    5   11 1
    11    5    6 1
    12    6    7 1
    13    6    8 1
    14    6   12 1
    15    8    9 1
    16    8   23 1
    17    8   24 1
    18    9   10 2
    19    9   11 1
    20   12   13 2
    21   12   14 2
    22   12   25 1
    23   15   16 1
    24   16   17 2
    25   18   19 2
    26   18   20 2
    27   18   26 1
@<TRIPOS>MOLECULE
ZINC12407421
   36    37     0     0     0
SMALL
USER_CHARGES

@<TRIPOS>ATOM
      1 C1         -0.0182    1.4890    0.0102 C.3       1 <0>        -0.0668
      2 C2          1.3434    2.1088    0.0006 C.2       1 <0>        -0.1614
      3 C3          2.4252    1.4398   -0.2232 C.2       1 <0>        -0.1396
      4 C4          2.4855   -0.0306   -0.4527 C.3       1 <0>        -0.0937
      5 C5          1.1321   -0.6436   -0.8213 C.3       1 <0>        -0.1052
      6 H1          0.9472   -0.6609   -1.8954 H         1 <0>         0.1228
      7 C6          0.0021   -0.0041    0.0020 C.3       1 <0>        -0.1294
      8 H2         -0.9390   -0.3407   -0.4328 H         1 <0>         0.1112
      9 C7          0.1278   -0.6888    1.3331 C.2       1 <0>         0.5417
     10 O1         -0.2053   -0.2479    2.4121 O.2       1 <0>        -0.4907
     11 N1          0.6866   -1.8950    1.0875 N.am      1 <0>        -0.5445
     12 C8          1.1425   -2.0379   -0.1727 C.2       1 <0>         0.5419
     13 O2          1.4952   -3.0725   -0.6970 O.2       1 <0>        -0.4708
     14 C9          0.7874   -2.9502    2.0987 C.3       1 <0>         0.0615
     15 H3          0.3515   -2.5996    3.0343 H         1 <0>         0.0925
     16 C10         0.0327   -4.1912    1.6179 C.3       1 <0>        -0.1185
     17 C11        -1.4599   -3.8718    1.5135 C.3       1 <0>        -0.0859
     18 C12        -2.2146   -5.1128    1.0327 C.3       1 <0>        -0.1799
     19 C13        -3.6848   -4.7982    0.9299 C.2       1 <0>         0.4910
     20 O3         -4.0913   -3.6846    1.2148 O.co2     1 <0>        -0.7000
     21 O4         -4.4678   -5.6573    0.5618 O.co2     1 <0>        -0.7175
     22 C14         2.2371   -3.2979    2.3192 C.2       1 <0>         0.5011
     23 O5          3.1056   -2.7180    1.6899 O.co2     1 <0>        -0.6861
     24 O6          2.5414   -4.1590    3.1268 O.co2     1 <0>        -0.6907
     25 H4         -0.5477    1.8253    0.9016 H         1 <0>         0.0861
     26 H5         -0.5646    1.8348   -0.8672 H         1 <0>         0.0824
     27 H6          1.4259    3.1687    0.1906 H         1 <0>         0.1069
     28 H7          3.3557    1.9875   -0.2460 H         1 <0>         0.1033
     29 H8          3.1908   -0.2299   -1.2594 H         1 <0>         0.0805
     30 H9          2.8514   -0.5113    0.4546 H         1 <0>         0.1039
     31 H10         0.4097   -4.4893    0.6396 H         1 <0>         0.0704
     32 H11         0.1814   -5.0047    2.3279 H         1 <0>         0.0752
     33 H12        -1.8369   -3.5736    2.4918 H         1 <0>         0.0539
     34 H13        -1.6086   -3.0583    0.8035 H         1 <0>         0.0456
     35 H14        -1.8376   -5.4110    0.0544 H         1 <0>         0.0536
     36 H15        -2.0659   -5.9263    1.7427 H         1 <0>         0.0553
@<TRIPOS>BOND
     1    1    7 1
     2    1    2 1
     3    1   25 1
     4    1   26 1
     5    2    3 2
     6    2   27 1
     7    3    4 1
     8    3   28 1
     9    4    5 1
    10    4   29 1
    11    4   30 1
    12    5    6 1
    13    5   12 1
    14    5    7 1
    15    7    8 1
    16    7    9 1
    17    9   10 2
    18    9   11 am
    19   11   12 am
    20   11   14 1
    21   12   13 2
    22   14   15 1
    23   14   16 1
    24   14   22 1
    25   16   17 1
    26   16   31 1
    27   16   32 1
    28   17   18 1
    29   17   33 1
    30   17   34 1
    31   18   19 1
    32   18   35 1
    33   18   36 1
    34   19   20 2
    35   19   21 1
    36   22   23 2
    37   22   24 1
@<TRIPOS>MOLECULE
ZINC05685841
   25    26     0     0     0
SMALL
USER_CHARGES

@<TRIPOS>ATOM
      1 C1         -0.0184    1.5028    0.0103 C.3       1 <0>        -0.1921
      2 C2          0.0021   -0.0041    0.0020 C.2       1 <0>         0.3472
      3 O1          1.0559   -0.5936   -0.0112 O.2       1 <0>        -0.4419
      4 C3         -1.2926   -0.7753    0.0102 C.3       1 <0>         0.0790
      5 N1         -1.0054   -2.2118   -0.0002 N.pl3     1 <0>        -0.4299
      6 C4         -0.8483   -3.0168   -1.1235 C.2       1 <0>        -0.1725
      7 C5         -0.8951   -2.8024   -2.4955 C.2       1 <0>         0.5195
      8 O2         -1.1436   -1.5650   -2.9833 O.3       1 <0>        -0.6874
      9 N2         -0.6927   -3.8255   -3.3296 N.2       1 <0>        -0.6313
     10 C6         -0.4485   -5.0393   -2.8863 C.2       1 <0>         0.6263
     11 O3         -0.2517   -6.0352   -3.7747 O.3       1 <0>        -0.6894
     12 N3         -0.3887   -5.3169   -1.5587 N.pl3     1 <0>        -0.5097
     13 C7         -0.5882   -4.3094   -0.6453 C.2       1 <0>         0.3066
     14 N4         -0.5956   -4.2501    0.6832 N.2       1 <0>        -0.5456
     15 C8         -0.8371   -3.0054    1.0781 C.2       1 <0>         0.4456
     16 S1         -0.9262   -2.4874    2.7074 S.2       1 <0>        -0.8034
     17 C9         -0.1133   -6.6816   -1.1026 C.3       1 <0>         0.0896
     18 H1          1.0042    1.8801    0.0026 H         1 <0>         0.0749
     19 H2         -0.5455    1.8639   -0.8728 H         1 <0>         0.0896
     20 H3         -0.5286    1.8543    0.9071 H         1 <0>         0.0885
     21 H4         -1.8592   -0.5245    0.9070 H         1 <0>         0.1200
     22 H5         -1.8762   -0.5150   -0.8728 H         1 <0>         0.1216
     23 H6          0.0151   -7.3343   -1.9661 H         1 <0>         0.0895
     24 H7          0.7975   -6.6877   -0.5039 H         1 <0>         0.0525
     25 H8         -0.9477   -7.0381   -0.4985 H         1 <0>         0.0526
@<TRIPOS>BOND
     1    1    2 1
     2    1   18 1
     3    1   19 1
     4    1   20 1
     5    2    3 2
     6    2    4 1
     7    4    5 1
     8    4   21 1
     9    4   22 1
    10    5   15 1
    11    5    6 1
    12    6   13 1
    13    6    7 2
    14    7    8 1
    15    7    9 1
    16    9   10 2
    17   10   11 1
    18   10   12 1
    19   12   13 1
    20   12   17 1
    21   13   14 2
    22   14   15 1
    23   15   16 2
    24   17   23 1
    25   17   24 1
    26   17   25 1
@<TRIPOS>MOLECULE
ZINC16899501
   40    41     0     0     0
SMALL
USER_CHARGES

@<TRIPOS>ATOM
      1 C1         -1.1456    0.5702   -0.3219 C.3       1 <0>        -0.1671
      2 C2         -0.8613   -0.9085   -0.3814 C.2       1 <0>         0.5078
      3 O1         -0.8545   -1.5662    0.6376 O.2       1 <0>        -0.5597
      4 N1         -0.6146   -1.5002   -1.5670 N.am      1 <0>        -0.6945
      5 C3         -0.3383   -2.9377   -1.6248 C.3       1 <0>         0.0949
      6 H1          0.2198   -3.2364   -0.7374 H         1 <0>         0.0911
      7 C4          0.4872   -3.2485   -2.8749 C.3       1 <0>        -0.0771
      8 S1          2.1117   -2.4525   -2.7401 S.3       1 <0>        -0.1998
      9 C5          2.9547   -2.9122   -4.2792 C.3       1 <0>        -0.1144
     10 H2          2.9536   -3.9946   -4.4072 H         1 <0>         0.1389
     11 C6          4.3968   -2.3654   -4.2924 C.3       1 <0>        -0.1269
     12 C7          4.4118   -1.4335   -5.4844 C.2       1 <0>         0.5303
     13 O2          5.3669   -0.7877   -5.8587 O.2       1 <0>        -0.4715
     14 N2          3.2033   -1.4355   -6.0603 N.am      1 <0>        -0.5168
     15 C8          2.3040   -2.2349   -5.4656 C.2       1 <0>         0.5305
     16 O3          1.1550   -2.3901   -5.8195 O.2       1 <0>        -0.4489
     17 C9          2.9026   -0.6698   -7.1896 C.ar      1 <0>         0.0902
     18 C10         3.4978   -0.9710   -8.4104 C.ar      1 <0>        -0.1153
     19 C11         3.2044   -0.2192   -9.5253 C.ar      1 <0>        -0.0782
     20 C12         2.3063    0.8490   -9.4297 C.ar      1 <0>        -0.1202
     21 C13         1.7100    1.1485   -8.2002 C.ar      1 <0>        -0.0756
     22 C14         2.0046    0.3880   -7.0914 C.ar      1 <0>        -0.1117
     23 C15         1.9897    1.6566  -10.6201 C.2       1 <0>         0.5212
     24 O4          2.5124    1.3935  -11.6944 O.co2     1 <0>        -0.6872
     25 O5          1.2041    2.5903  -10.5346 O.co2     1 <0>        -0.6843
     26 C16        -1.6386   -3.6974   -1.6798 C.2       1 <0>         0.5003
     27 O6         -2.6176   -3.1931   -2.2030 O.co2     1 <0>        -0.6786
     28 O7         -1.7116   -4.8164   -1.2012 O.co2     1 <0>        -0.6888
     29 H3         -0.2104    1.1151   -0.1927 H         1 <0>         0.0859
     30 H4         -1.6249    0.8856   -1.2487 H         1 <0>         0.0776
     31 H5         -1.8071    0.7795    0.5187 H         1 <0>         0.0855
     32 H6         -0.6201   -0.9742   -2.3820 H         1 <0>         0.3973
     33 H7          0.6174   -4.3269   -2.9656 H         1 <0>         0.0982
     34 H8         -0.0310   -2.8697   -3.7559 H         1 <0>         0.1005
     35 H9          4.6076   -1.8172   -3.3741 H         1 <0>         0.1293
     36 H10         5.1129   -3.1756   -4.4297 H         1 <0>         0.1304
     37 H11         4.1914   -1.7956   -8.4833 H         1 <0>         0.1167
     38 H12         3.6672   -0.4534  -10.4726 H         1 <0>         0.1340
     39 H13         1.0164    1.9726   -8.1221 H         1 <0>         0.1356
     40 H14         1.5414    0.6158   -6.1427 H         1 <0>         0.1206
@<TRIPOS>BOND
     1    1    2 1
     2    1   29 1
     3    1   30 1
     4    1   31 1
     5    2    3 2
     6    2    4 am
     7    4    5 1
     8    4   32 1
     9    5    6 1
    10    5    7 1
    11    5   26 1
    12    7    8 1
    13    7   33 1
    14    7   34 1
    15    8    9 1
    16    9   10 1
    17    9   15 1
    18    9   11 1
    19   11   12 1
    20   11   35 1
    21   11   36 1
    22   12   13 2
    23   12   14 am
    24   14   15 am
    25   14   17 1
    26   15   16 2
    27   17   22 ar
    28   17   18 ar
    29   18   19 ar
    30   18   37 1
    31   19   20 ar
    32   19   38 1
    33   20   21 ar
    34   20   23 1
    35   21   22 ar
    36   21   39 1
    37   22   40 1
    38   23   24 2
    39   23   25 1
    40   26   27 2
    41   26   28 1
@<TRIPOS>MOLECULE
ZINC62302119
   25    25     0     0     0
SMALL
USER_CHARGES

@<TRIPOS>ATOM
      1 C1         -0.0173    1.4248    0.0099 C.3       1 <0>         0.0369
      2 O1          0.0021   -0.0041    0.0020 O.3       1 <0>        -0.3798
      3 C2          0.6518   -0.5703   -1.1379 C.3       1 <0>         0.1403
      4 C3          0.6137   -2.0738   -1.0425 C.2       1 <0>         0.0650
      5 C4          1.5524   -2.8842   -0.4416 C.2       1 <0>        -0.0801
      6 N1          1.1505   -4.1615   -0.5723 N.2       1 <0>        -0.2186
      7 N2          0.0327   -4.1983   -1.2097 N.2       1 <0>        -0.1099
      8 N3         -0.3475   -2.8860   -1.5230 N.pl3     1 <0>        -0.3469
      9 C5         -1.5579   -2.4762   -2.2395 C.3       1 <0>         0.1437
     10 C6         -1.2707   -2.4310   -3.7416 C.3       1 <0>        -0.1971
     11 C7         -2.5157   -2.0095   -4.4786 C.2       1 <0>         0.5023
     12 O2         -3.5380   -1.7676   -3.8598 O.co2     1 <0>        -0.6967
     13 O3         -2.5007   -1.9102   -5.6937 O.co2     1 <0>        -0.7007
     14 C8          2.7821   -2.4309    0.2270 C.2       1 <0>         0.5665
     15 O4          3.0434   -1.2370    0.2832 O.co2     1 <0>        -0.6842
     16 O5          3.5434   -3.2479    0.7269 O.co2     1 <0>        -0.6789
     17 H1          1.0053    1.8021    0.0021 H         1 <0>         0.0440
     18 H2         -0.5445    1.7859   -0.8732 H         1 <0>         0.0358
     19 H3         -0.5275    1.7763    0.9067 H         1 <0>         0.0787
     20 H4          0.1385   -0.2506   -2.0447 H         1 <0>         0.0512
     21 H5          1.6883   -0.2344   -1.1694 H         1 <0>         0.1023
     22 H6         -2.3560   -3.1923   -2.0436 H         1 <0>         0.0981
     23 H7         -1.8649   -1.4876   -1.8983 H         1 <0>         0.0951
     24 H8         -0.4725   -1.7150   -3.9375 H         1 <0>         0.0638
     25 H9         -0.9637   -3.4197   -4.0827 H         1 <0>         0.0692
@<TRIPOS>BOND
     1    1    2 1
     2    1   17 1
     3    1   18 1
     4    1   19 1
     5    2    3 1
     6    3    4 1
     7    3   20 1
     8    3   21 1
     9    4    8 1
    10    4    5 2
    11    5    6 1
    12    5   14 1
    13    6    7 2
    14    7    8 1
    15    8    9 1
    16    9   10 1
    17    9   22 1
    18    9   23 1
    19   10   11 1
    20   10   24 1
    21   10   25 1
    22   11   12 2
    23   11   13 1
    24   14   15 2
    25   14   16 1
@<TRIPOS>MOLECULE
ZINC05133268
   16    16     0     0     0
SMALL
USER_CHARGES
cyclobutane-1,3-dicarboxylic acid
@<TRIPOS>ATOM
      1 C1         -0.9648    2.1118   -1.0377 C.3       1 <0>        -0.1068
      2 C2         -0.0184    1.5028    0.0103 C.3       1 <0>        -0.1523
      3 C3         -0.9445    2.1004    1.0827 C.3       1 <0>        -0.0950
      4 C4         -2.0683    2.0379    0.0308 C.3       1 <0>        -0.1434
      5 C5         -2.9763    3.2405    0.0451 C.2       1 <0>         0.4749
      6 O1         -2.7964    4.1426   -0.7384 O.co2     1 <0>        -0.6505
      7 C6          0.0021   -0.0041    0.0020 C.2       1 <0>         0.4838
      8 O2         -0.6653   -0.6129   -0.8004 O.co2     1 <0>        -0.6387
      9 H1         -0.7018    3.1301   -1.3241 H         1 <0>         0.0721
     10 H2         -1.1428    1.4625   -1.8949 H         1 <0>         0.0610
     11 H3          0.9802    1.9397    0.0031 H         1 <0>         0.0618
     12 H4         -1.1062    1.4419    1.9361 H         1 <0>         0.0566
     13 H5         -0.6760    3.1156    1.3749 H         1 <0>         0.0643
     14 H6         -2.6149    1.0948    0.0294 H         1 <0>         0.0847
     15 O3         -3.9848    3.3096    0.9281 O.co2     1 <0>        -0.7869
     16 O4          0.7616   -0.6698    0.8861 O.co2     1 <0>        -0.7856
@<TRIPOS>BOND
     1    1    4 1
     2    1    2 1
     3    1    9 1
     4    1   10 1
     5    2    3 1
     6    2    7 1
     7    2   11 1
     8    3    4 1
     9    3   12 1
    10    3   13 1
    11    4    5 1
    12    4   14 1
    13    5    6 2
    14    5   15 1
    15    7    8 2
    16    7   16 1
@<TRIPOS>MOLECULE
ZINC13772017
   26    26     0     0     0
SMALL
USER_CHARGES
(1R,2R,3R,6R)-3,6-dimethylcyclohex-4-ene-1,2-dicarboxylic acid
@<TRIPOS>ATOM
      1 C1         -0.0127    1.0858    0.0080 C.3       1 <0>        -0.1311
      2 C2         -0.7288    1.5792    1.2668 C.3       1 <0>        -0.0445
      3 H1         -1.7496    1.1969    1.2751 H         1 <0>         0.0684
      4 C3         -0.7626    3.0795    1.2641 C.2       1 <0>        -0.1486
      5 C4          0.0138    3.8237    1.9845 C.2       1 <0>        -0.1487
      6 C5          1.0494    3.2901    2.9305 C.3       1 <0>        -0.0444
      7 H2          1.9647    3.8734    2.8307 H         1 <0>         0.0684
      8 C6          1.3459    1.8226    2.6142 C.3       1 <0>        -0.1016
      9 H3          1.8862    1.7499    1.6703 H         1 <0>         0.0596
     10 C7          0.0133    1.0709    2.5048 C.3       1 <0>        -0.1012
     11 H4         -0.5874    1.2586    3.3948 H         1 <0>         0.0597
     12 C8          0.2749   -0.4068    2.3673 C.2       1 <0>         0.4879
     13 O1          1.4093   -0.8229    2.3766 O.co2     1 <0>        -0.6101
     14 C9          2.1760    1.2237    3.7202 C.2       1 <0>         0.4886
     15 O2          1.7492    0.2907    4.3585 O.co2     1 <0>        -0.6108
     16 C10         0.5322    3.4050    4.3659 C.3       1 <0>        -0.1311
     17 H5          0.0021   -0.0041    0.0020 H         1 <0>         0.0653
     18 H6          1.0099    1.4631    0.0003 H         1 <0>         0.0496
     19 H7         -0.5399    1.4469   -0.8751 H         1 <0>         0.0330
     20 H8         -1.4790    3.5688    0.6209 H         1 <0>         0.0862
     21 H9         -0.0898    4.8953    1.8991 H         1 <0>         0.0862
     22 H10         1.2880    3.0291    5.0556 H         1 <0>         0.0650
     23 H11         0.3203    4.4497    4.5932 H         1 <0>         0.0331
     24 H12        -0.3801    2.8179    4.4715 H         1 <0>         0.0498
     25 O3         -0.7521   -1.2608    2.2346 O.co2     1 <0>        -0.8141
     26 O4          3.3895    1.7267    3.9964 O.co2     1 <0>        -0.8144
@<TRIPOS>BOND
     1    1    2 1
     2    1   17 1
     3    1   18 1
     4    1   19 1
     5    2    3 1
     6    2   10 1
     7    2    4 1
     8    4    5 2
     9    4   20 1
    10    5    6 1
    11    5   21 1
    12    6    7 1
    13    6    8 1
    14    6   16 1
    15    8    9 1
    16    8   10 1
    17    8   14 1
    18   10   11 1
    19   10   12 1
    20   12   13 2
    21   12   25 1
    22   14   15 2
    23   14   26 1
    24   16   22 1
    25   16   23 1
    26   16   24 1
@<TRIPOS>MOLECULE
ZINC19768706
   31    32     0     0     0
SMALL
USER_CHARGES
3-[(2S)-2-(carboxymethyl)-6-chloro-3-oxo-1,4-benzoxazin-4-yl]propanoic acid
@<TRIPOS>ATOM
      1 C1         -3.7959   -0.6613   -2.8965 C.ar      1 <0>        -0.1096
      2 C2         -3.2742    0.4280   -3.5710 C.ar      1 <0>        -0.0997
      3 C3         -2.2470    1.1631   -3.0053 C.ar      1 <0>         0.0926
      4 C4         -1.7449    0.8072   -1.7560 C.ar      1 <0>         0.1159
      5 C5         -2.2708   -0.2852   -1.0839 C.ar      1 <0>        -0.1194
      6 C6         -3.2938   -1.0194   -1.6582 C.ar      1 <0>        -0.0339
      7 Cl1        -3.9490   -2.3926   -0.8224 Cl        1 <0>        -0.0769
      8 N1         -0.7213    1.5711   -1.1789 N.am      1 <0>        -0.5479
      9 C7         -0.3928    2.7568   -1.7336 C.2       1 <0>         0.4923
     10 O1          0.5637    3.3784   -1.3212 O.2       1 <0>        -0.5072
     11 C8         -1.2202    3.3049   -2.8688 C.3       1 <0>         0.1047
     12 H1         -0.5955    3.9160   -3.5369 H         1 <0>         0.1500
     13 O2         -1.7171    2.2277   -3.6658 O.3       1 <0>        -0.2783
     14 C9         -2.3963    4.1030   -2.3026 C.3       1 <0>        -0.1834
     15 C10        -3.1529    4.7527   -3.4324 C.2       1 <0>         0.4737
     16 O3         -2.7887    4.5938   -4.5735 O.co2     1 <0>        -0.6257
     17 O4         -4.2313    5.5080   -3.1711 O.co2     1 <0>        -0.7711
     18 C11        -0.0127    1.0858    0.0080 C.3       1 <0>         0.1232
     19 C12        -0.7288    1.5792    1.2668 C.3       1 <0>        -0.1744
     20 C13         0.0000    1.0800    2.4877 C.2       1 <0>         0.4707
     21 O5          0.9906    0.3994    2.3637 O.co2     1 <0>        -0.6423
     22 O6         -0.4513    1.3915    3.7129 O.co2     1 <0>        -0.7719
     23 H2         -4.5977   -1.2343   -3.3384 H         1 <0>         0.1371
     24 H3         -3.6682    0.7048   -4.5378 H         1 <0>         0.1464
     25 H4         -1.8802   -0.5655   -0.1168 H         1 <0>         0.1457
     26 H5         -3.0675    3.4268   -1.7529 H         1 <0>         0.0767
     27 H6         -2.0184    4.8788   -1.6204 H         1 <0>         0.0891
     28 H7          0.0022   -0.0141    0.0019 H         1 <0>         0.0864
     29 H8          1.0193    1.4665    0.0002 H         1 <0>         0.0965
     30 H9         -0.7437    2.6791    1.2728 H         1 <0>         0.0714
     31 H10        -1.7608    1.1985    1.2746 H         1 <0>         0.0694
@<TRIPOS>BOND
     1    1    6 ar
     2    1    2 ar
     3    1   23 1
     4    2    3 ar
     5    2   24 1
     6    3   13 1
     7    3    4 ar
     8    4    5 ar
     9    4    8 1
    10    5    6 ar
    11    5   25 1
    12    6    7 1
    13    8    9 am
    14    8   18 1
    15    9   10 2
    16    9   11 1
    17   11   12 1
    18   11   13 1
    19   11   14 1
    20   14   15 1
    21   14   26 1
    22   14   27 1
    23   15   16 2
    24   15   17 1
    25   18   19 1
    26   18   28 1
    27   18   29 1
    28   19   20 1
    29   19   30 1
    30   19   31 1
    31   20   21 2
    32   20   22 1
@<TRIPOS>MOLECULE
ZINC39126005
   20    20     0     0     0
SMALL
USER_CHARGES

@<TRIPOS>ATOM
      1 C1          0.1747    1.6524   -0.6920 C.3       1 <0>        -0.1949
      2 C2          1.6491    1.9600   -0.3661 C.3       1 <0>         0.1323
      3 N1          2.1024    0.8774    0.5185 N.am      1 <0>        -0.6552
      4 C3          1.1704   -0.2497    0.3978 C.3       1 <0>         0.1197
      5 H1          0.7245   -0.4645    1.3690 H         1 <0>         0.0891
      6 C4          0.0887    0.1390   -0.5869 C.2       1 <0>         0.3718
      7 O1         -0.6774   -0.5949   -1.1638 O.2       1 <0>        -0.4148
      8 C5          1.9156   -1.4843   -0.1134 C.3       1 <0>        -0.1787
      9 C6          0.9830   -2.6681   -0.1169 C.2       1 <0>         0.5010
     10 O2         -0.1316   -2.5676    0.3667 O.co2     1 <0>        -0.6911
     11 O3          1.3433   -3.7265   -0.6035 O.co2     1 <0>        -0.7237
     12 C7          3.1933    0.9136    1.3091 C.2       1 <0>         0.6805
     13 O4          3.9452    1.8776    1.2700 O.co2     1 <0>        -0.7312
     14 O5          3.4315   -0.0174    2.0656 O.co2     1 <0>        -0.7089
     15 H2         -0.4849    2.1248    0.0359 H         1 <0>         0.0956
     16 H3         -0.0706    1.9806   -1.7021 H         1 <0>         0.0845
     17 H4          2.2416    1.9703   -1.2809 H         1 <0>         0.0389
     18 H5          1.7285    2.9199    0.1442 H         1 <0>         0.0597
     19 H6          2.2723   -1.2997   -1.1267 H         1 <0>         0.0433
     20 H7          2.7642   -1.6922    0.5383 H         1 <0>         0.0823
@<TRIPOS>BOND
     1    1    6 1
     2    1    2 1
     3    1   15 1
     4    1   16 1
     5    2    3 1
     6    2   17 1
     7    2   18 1
     8    3    4 1
     9    3   12 am
    10    4    5 1
    11    4    6 1
    12    4    8 1
    13    6    7 2
    14    8    9 1
    15    8   19 1
    16    8   20 1
    17    9   10 2
    18    9   11 1
    19   12   13 2
    20   12   14 1
@<TRIPOS>MOLECULE
ZINC58251972
   19    18     0     0     0
SMALL
USER_CHARGES

@<TRIPOS>ATOM
      1 C1         -0.0187    1.5258    0.0104 C.3       1 <0>        -0.0725
      2 C2          0.0021   -0.0041    0.0020 C.3       1 <0>        -0.1770
      3 C3         -1.4117   -0.5257    0.0127 C.2       1 <0>         0.4912
      4 O1         -2.3491    0.2539    0.0259 O.co2     1 <0>        -0.6957
      5 O2         -1.6182   -1.7273    0.0082 O.co2     1 <0>        -0.7155
      6 C4          1.4167    2.0553   -0.0004 C.3       1 <0>        -0.1057
      7 S1          1.3921    3.8692    0.0095 S.3       1 <0>        -0.2214
      8 C5          3.1460    4.3319   -0.0047 C.3       1 <0>        -0.1518
      9 C6          3.2694    5.8338    0.0022 C.2       1 <0>         0.5113
     10 O3          2.2670    6.5278    0.0155 O.co2     1 <0>        -0.6708
     11 O4          4.3715    6.3550   -0.0056 O.co2     1 <0>        -0.7008
     12 H1         -0.5459    1.8868   -0.8726 H         1 <0>         0.0664
     13 H2         -0.5289    1.8773    0.9072 H         1 <0>         0.0664
     14 H3          0.5123   -0.3556   -0.8948 H         1 <0>         0.0546
     15 H4          0.5293   -0.3651    0.8851 H         1 <0>         0.0546
     16 H5          1.9439    1.6943    0.8826 H         1 <0>         0.0632
     17 H6          1.9269    1.7038   -0.8972 H         1 <0>         0.0632
     18 H7          3.6369    3.9230    0.8784 H         1 <0>         0.0701
     19 H8          3.6199    3.9326   -0.9014 H         1 <0>         0.0701
@<TRIPOS>BOND
     1    1    2 1
     2    1    6 1
     3    1   12 1
     4    1   13 1
     5    2    3 1
     6    2   14 1
     7    2   15 1
     8    3    4 2
     9    3    5 1
    10    6    7 1
    11    6   16 1
    12    6   17 1
    13    7    8 1
    14    8    9 1
    15    8   18 1
    16    8   19 1
    17    9   10 2
    18    9   11 1
@<TRIPOS>MOLECULE
ZINC13027461
   40    41     0     0     0
SMALL
USER_CHARGES
1-[4-(2-carboxyethyl)phenyl]sulfonylpiperidine-4-carboxylic acid
@<TRIPOS>ATOM
      1 C1          0.0021   -0.0041    0.0020 C.ar      1 <0>        -0.1421
      2 C2         -0.0167    1.3781    0.0096 C.ar      1 <0>        -0.0185
      3 C3          1.1709    2.0855    0.0021 C.ar      1 <0>        -0.6882
      4 C4          2.3773    1.4107   -0.0145 C.ar      1 <0>        -0.0187
      5 C5          2.3961    0.0285   -0.0212 C.ar      1 <0>        -0.1422
      6 C6          1.2084   -0.6789   -0.0132 C.ar      1 <0>        -0.0122
      7 C7          1.2289   -2.1857   -0.0205 C.3       1 <0>        -0.0726
      8 C8          1.2214   -2.6889   -1.4653 C.3       1 <0>        -0.1506
      9 C9          1.2419   -4.1957   -1.4726 C.2       1 <0>         0.4610
     10 O1          1.2605   -4.8047   -0.4292 O.co2     1 <0>        -0.6409
     11 S1          1.1470    3.8473    0.0112 S.o2      1 <0>         2.6920
     12 O2          2.3816    4.2732   -0.5490 O.2       1 <0>        -0.9621
     13 O3         -0.1088    4.2393   -0.5259 O.2       1 <0>        -0.9624
     14 N1          1.1552    4.3289    1.5957 N.pl3     1 <0>        -0.9935
     15 C10        -0.1052    4.5353    2.3219 C.3       1 <0>         0.1195
     16 C11        -0.1042    5.9356    2.9323 C.3       1 <0>        -0.1071
     17 C12         1.1515    6.1156    3.7884 C.3       1 <0>        -0.1267
     18 C13         2.3956    5.9691    2.9092 C.3       1 <0>        -0.1062
     19 C14         2.4230    4.5638    2.3001 C.3       1 <0>         0.1175
     20 C15         1.1389    7.4855    4.4163 C.2       1 <0>         0.4660
     21 O4          2.0330    8.2645    4.1846 O.co2     1 <0>        -0.6414
     22 H1         -0.9258   -0.5567    0.0083 H         1 <0>         0.1308
     23 H2         -0.9592    1.9054    0.0170 H         1 <0>         0.1360
     24 H3          3.3052    1.9634   -0.0201 H         1 <0>         0.1358
     25 H4          3.3386   -0.4987   -0.0324 H         1 <0>         0.1307
     26 H5          2.1288   -2.5393    0.4828 H         1 <0>         0.0769
     27 H6          0.3491   -2.5635    0.5004 H         1 <0>         0.0770
     28 H7          0.3215   -2.3353   -1.9686 H         1 <0>         0.0663
     29 H8          2.1012   -2.3111   -1.9862 H         1 <0>         0.0663
     30 H9         -0.9441    4.4393    1.6325 H         1 <0>         0.0882
     31 H10        -0.1953    3.7937    3.1156 H         1 <0>         0.0673
     32 H11        -0.9900    6.0632    3.5545 H         1 <0>         0.0816
     33 H12        -0.1098    6.6778    2.1340 H         1 <0>         0.0599
     34 H13         1.1689    5.3575    4.5714 H         1 <0>         0.0698
     35 H14         3.2890    6.1206    3.5150 H         1 <0>         0.0734
     36 H15         2.3671    6.7110    2.1111 H         1 <0>         0.0661
     37 H16         2.5434    3.8246    3.0921 H         1 <0>         0.0656
     38 H17         3.2518    4.4866    1.5964 H         1 <0>         0.0876
     39 O5          1.2394   -4.8613   -2.6383 O.co2     1 <0>        -0.7759
     40 O6          0.1345    7.8401    5.2331 O.co2     1 <0>        -0.7744
@<TRIPOS>BOND
     1    1    6 ar
     2    1    2 ar
     3    1   22 1
     4    2    3 ar
     5    2   23 1
     6    3    4 ar
     7    3   11 1
     8    4    5 ar
     9    4   24 1
    10    5    6 ar
    11    5   25 1
    12    6    7 1
    13    7    8 1
    14    7   26 1
    15    7   27 1
    16    8    9 1
    17    8   28 1
    18    8   29 1
    19    9   10 2
    20    9   39 1
    21   11   12 2
    22   11   13 2
    23   11   14 1
    24   14   19 1
    25   14   15 1
    26   15   16 1
    27   15   30 1
    28   15   31 1
    29   16   17 1
    30   16   32 1
    31   16   33 1
    32   17   18 1
    33   17   20 1
    34   17   34 1
    35   18   19 1
    36   18   35 1
    37   18   36 1
    38   19   37 1
    39   19   38 1
    40   20   21 2
    41   20   40 1
@<TRIPOS>MOLECULE
ZINC14253038
   25    26     0     0     0
SMALL
USER_CHARGES
5-[(2,4-difluorophenyl)sulfamoyl]thiophene-3-carboxylic acid
@<TRIPOS>ATOM
      1 C1          1.0871    2.0470    0.4204 C.ar      1 <0>        -0.1199
      2 C2         -0.0339    1.2551    0.2578 C.ar      1 <0>        -0.1939
      3 C3         -1.2909    1.8386    0.1897 C.ar      1 <0>         0.2106
      4 C4         -1.4209    3.2193    0.2970 C.ar      1 <0>         0.0716
      5 C5         -0.2965    4.0071    0.4591 C.ar      1 <0>        -0.1637
      6 C6          0.9571    3.4214    0.5208 C.ar      1 <0>         0.0265
      7 F1          2.0548    4.1928    0.6798 F         1 <0>        -0.1584
      8 F2         -2.6438    3.7902    0.2363 F         1 <0>        -0.1360
      9 N1         -2.4269    1.0385    0.0191 N.2       1 <0>        -1.0553
     10 S1         -2.5012   -0.4561    0.7284 S.o2      1 <0>         2.6301
     11 O1         -3.8100   -0.9548    0.4886 O.2       1 <0>        -0.9889
     12 O2         -1.3330   -1.1563    0.3232 O.2       1 <0>        -1.0354
     13 C7         -2.3653   -0.2143    2.4684 C.2       1 <0>        -0.7409
     14 C8         -3.3497   -0.0086    3.3648 C.2       1 <0>         0.0092
     15 C9         -2.9584    0.1580    4.7424 C.2       1 <0>        -0.1888
     16 C10        -1.6078    0.1017    5.0217 C.2       1 <0>        -0.1477
     17 S2         -0.8925   -0.1747    3.4692 S.3       1 <0>         0.1271
     18 C11        -3.9531    0.3828    5.8016 C.2       1 <0>         0.5099
     19 O3         -5.1360    0.4270    5.5251 O.co2     1 <0>        -0.6330
     20 O4         -3.5533    0.5399    7.0793 O.co2     1 <0>        -0.7660
     21 H1          2.0658    1.5930    0.4689 H         1 <0>         0.1216
     22 H2          0.0690    0.1829    0.1792 H         1 <0>         0.1624
     23 H3         -0.3956    5.0797    0.5373 H         1 <0>         0.1271
     24 H4         -4.3866    0.0272    3.0650 H         1 <0>         0.1457
     25 H5         -1.1159    0.2051    5.9777 H         1 <0>         0.1862
@<TRIPOS>BOND
     1    1    6 ar
     2    1    2 ar
     3    1   21 1
     4    2    3 ar
     5    2   22 1
     6    3    4 ar
     7    3    9 1
     8    4    5 ar
     9    4    8 1
    10    5    6 ar
    11    5   23 1
    12    6    7 1
    13    9   10 1
    14   10   11 2
    15   10   12 2
    16   10   13 1
    17   13   17 1
    18   13   14 2
    19   14   15 1
    20   14   24 1
    21   15   16 2
    22   15   18 1
    23   16   17 1
    24   16   25 1
    25   18   19 2
    26   18   20 1
@<TRIPOS>MOLECULE
ZINC32205415
   26    26     0     0     0
SMALL
USER_CHARGES
3-(2-carboxyethyl)-4-methoxy-benzoic acid
@<TRIPOS>ATOM
      1 C1          2.3062   -0.3068   -0.0216 C.3       1 <0>         0.0279
      2 O1          2.3651    1.1210   -0.0145 O.3       1 <0>        -0.3094
      3 C2          1.1825    1.7863    0.0004 C.ar      1 <0>         0.1188
      4 C3         -0.0126    1.0758    0.0080 C.ar      1 <0>        -0.2263
      5 C4         -1.2145    1.7468    0.0173 C.ar      1 <0>        -0.0529
      6 C5         -1.2322    3.1448    0.0312 C.ar      1 <0>        -0.1518
      7 C6         -0.0285    3.8552    0.0230 C.ar      1 <0>        -0.0473
      8 C7          1.1693    3.1762    0.0075 C.ar      1 <0>        -0.1172
      9 C8          2.4677    3.9410   -0.0013 C.3       1 <0>        -0.0481
     10 C9          2.9570    4.0988   -1.4424 C.3       1 <0>        -0.1472
     11 C10         4.2554    4.8636   -1.4512 C.2       1 <0>         0.4640
     12 O2          4.7398    5.2436   -0.4115 O.co2     1 <0>        -0.6445
     13 O3          4.8738    5.1228   -2.6140 O.co2     1 <0>        -0.7864
     14 C11        -2.5174    3.8678    0.0478 C.2       1 <0>         0.4961
     15 O4         -2.5309    5.0828    0.0545 O.co2     1 <0>        -0.6349
     16 O5         -3.6767    3.1811    0.0557 O.co2     1 <0>        -0.7684
     17 H1          3.3273   -0.7158   -0.0336 H         1 <0>         0.0915
     18 H2          1.7644   -0.6470   -0.9164 H         1 <0>         0.0496
     19 H3          1.7816   -0.6566    0.8798 H         1 <0>         0.0483
     20 H4          0.0021   -0.0041    0.0020 H         1 <0>         0.1172
     21 H5         -2.1424    1.1942    0.0184 H         1 <0>         0.1271
     22 H6         -0.0379    4.9352    0.0286 H         1 <0>         0.1323
     23 H7          2.3109    4.9347    0.4436 H         1 <0>         0.0666
     24 H8          3.2205    3.3921    0.5835 H         1 <0>         0.0694
     25 H9          3.1138    3.1051   -1.8873 H         1 <0>         0.0629
     26 H10         2.2042    4.6477   -2.0272 H         1 <0>         0.0627
@<TRIPOS>BOND
     1    1    2 1
     2    1   17 1
     3    1   18 1
     4    1   19 1
     5    2    3 1
     6    3    8 ar
     7    3    4 ar
     8    4    5 ar
     9    4   20 1
    10    5    6 ar
    11    5   21 1
    12    6    7 ar
    13    6   14 1
    14    7    8 ar
    15    7   22 1
    16    8    9 1
    17    9   10 1
    18    9   23 1
    19    9   24 1
    20   10   11 1
    21   10   25 1
    22   10   26 1
    23   11   12 2
    24   11   13 1
    25   14   15 2
    26   14   16 1
@<TRIPOS>MOLECULE
ZINC55311315
   28    29     0     0     0
SMALL
USER_CHARGES

@<TRIPOS>ATOM
      1 C1         -0.0184    1.5028    0.0103 C.3       1 <0>        -0.0917
      2 C2          0.0021   -0.0041    0.0020 C.2       1 <0>         0.0861
      3 C3         -1.0883   -0.8040    0.0027 C.2       1 <0>        -0.7147
      4 C4         -0.6305   -2.1290   -0.0066 C.2       1 <0>        -0.1135
      5 C5          0.7464   -2.0683   -0.0126 C.2       1 <0>        -0.0705
      6 O1          1.1021   -0.7660   -0.0130 O.3       1 <0>        -0.1489
      7 C6          1.6585   -3.2099   -0.0231 C.2       1 <0>         0.5667
      8 O2          1.2120   -4.3506   -0.0272 O.co2     1 <0>        -0.6630
      9 O3          2.8696   -3.0263   -0.0277 O.co2     1 <0>        -0.6780
     10 S1         -2.7702   -0.2789    0.0139 S.o2      1 <0>         2.6461
     11 O4         -2.8959    0.7031   -1.0054 O.2       1 <0>        -1.0341
     12 O5         -3.5635   -1.4576    0.0381 O.2       1 <0>        -1.0292
     13 N1         -3.0314    0.4969    1.4534 N.2       1 <0>        -1.0836
     14 C7         -4.2924    1.0266    1.7434 C.ar      1 <0>         0.2913
     15 C8         -5.3283    0.8976    0.8271 C.ar      1 <0>        -0.2404
     16 C9         -6.5735    1.4214    1.1150 C.ar      1 <0>        -0.0787
     17 C10        -6.7900    2.0754    2.3159 C.ar      1 <0>        -0.0248
     18 C11        -5.7584    2.2056    3.2318 C.ar      1 <0>        -0.0131
     19 C12        -4.5124    1.6773    2.9500 C.ar      1 <0>        -0.1559
     20 Cl1        -6.0327    3.0267    4.7366 Cl        1 <0>        -0.0919
     21 F1         -8.0085    2.5878    2.5950 F         1 <0>        -0.1558
     22 H1          1.0042    1.8801    0.0026 H         1 <0>         0.0752
     23 H2         -0.5455    1.8639   -0.8728 H         1 <0>         0.0971
     24 H3         -0.5286    1.8543    0.9071 H         1 <0>         0.1012
     25 H4         -1.2377   -3.0222   -0.0081 H         1 <0>         0.1557
     26 H5         -5.1601    0.3881   -0.1102 H         1 <0>         0.1126
     27 H6         -7.3789    1.3210    0.4025 H         1 <0>         0.1229
     28 H7         -3.7096    1.7746    3.6659 H         1 <0>         0.1328
@<TRIPOS>BOND
     1    1    2 1
     2    1   22 1
     3    1   23 1
     4    1   24 1
     5    2    6 1
     6    2    3 2
     7    3    4 1
     8    3   10 1
     9    4    5 2
    10    4   25 1
    11    5    6 1
    12    5    7 1
    13    7    8 2
    14    7    9 1
    15   10   11 2
    16   10   12 2
    17   10   13 1
    18   13   14 1
    19   14   19 ar
    20   14   15 ar
    21   15   16 ar
    22   15   26 1
    23   16   17 ar
    24   16   27 1
    25   17   18 ar
    26   17   21 1
    27   18   19 ar
    28   18   20 1
    29   19   28 1
@<TRIPOS>MOLECULE
ZINC63142517
   30    30     0     0     0
SMALL
USER_CHARGES

@<TRIPOS>ATOM
      1 C1         -0.0225    1.8097    0.0120 C.3       1 <0>        -0.6612
      2 S1          0.0021   -0.0041    0.0020 S.o2      1 <0>         2.4277
      3 O1          0.7981   -0.4488    1.0919 O.2       1 <0>        -0.9379
      4 O2         -1.3351   -0.4711   -0.1129 O.2       1 <0>        -0.9379
      5 C2          0.8774   -0.3845   -1.5406 C.3       1 <0>        -0.5954
      6 C3          0.9858   -1.9018   -1.7046 C.3       1 <0>        -0.5975
      7 S2          1.8611   -2.2822   -3.2473 S.o2      1 <0>         2.5242
      8 O3          1.0705   -1.9020   -4.3651 O.2       1 <0>        -1.0269
      9 O4          3.2204   -1.8795   -3.1508 O.2       1 <0>        -1.0270
     10 N1          1.9138   -3.9362   -3.3099 N.2       1 <0>        -1.0927
     11 C4          2.5305   -4.5758   -4.3900 C.ar      1 <0>         0.2481
     12 C5          3.1044   -3.8217   -5.4083 C.ar      1 <0>        -0.2375
     13 C6          3.7153   -4.4460   -6.4783 C.ar      1 <0>        -0.1274
     14 C7          3.7609   -5.8267   -6.5451 C.ar      1 <0>         0.0287
     15 C8          3.1864   -6.5942   -5.5255 C.ar      1 <0>        -0.1384
     16 C9          2.5741   -5.9587   -4.4415 C.ar      1 <0>        -0.1112
     17 C10         3.2316   -8.0657   -5.5917 C.2       1 <0>         0.5263
     18 O5          2.7286   -8.7337   -4.6991 O.co2     1 <0>        -0.6960
     19 O6          3.7721   -8.6189   -6.5392 O.co2     1 <0>        -0.6910
     20 F1          4.3590   -6.4337   -7.5935 F         1 <0>        -0.1469
     21 H1          1.0001    2.1870    0.0043 H         1 <0>         0.1285
     22 H2         -0.5497    2.1708   -0.8711 H         1 <0>         0.1285
     23 H3         -0.5327    2.1613    0.9088 H         1 <0>         0.1274
     24 H4          0.3268    0.0336   -2.3834 H         1 <0>         0.1402
     25 H5          1.8766    0.0498   -1.5080 H         1 <0>         0.1402
     26 H6          1.5364   -2.3199   -0.8619 H         1 <0>         0.1374
     27 H7         -0.0134   -2.3361   -1.7372 H         1 <0>         0.1374
     28 H8          3.0718   -2.7432   -5.3623 H         1 <0>         0.0995
     29 H9          4.1584   -3.8540   -7.2654 H         1 <0>         0.1049
     30 H10         2.1328   -6.5445   -3.6487 H         1 <0>         0.1259
@<TRIPOS>BOND
     1    1    2 1
     2    1   21 1
     3    1   22 1
     4    1   23 1
     5    2    3 2
     6    2    4 2
     7    2    5 1
     8    5    6 1
     9    5   24 1
    10    5   25 1
    11    6    7 1
    12    6   26 1
    13    6   27 1
    14    7    8 2
    15    7    9 2
    16    7   10 1
    17   10   11 1
    18   11   16 ar
    19   11   12 ar
    20   12   13 ar
    21   12   28 1
    22   13   14 ar
    23   13   29 1
    24   14   15 ar
    25   14   20 1
    26   15   16 ar
    27   15   17 1
    28   16   30 1
    29   17   18 2
    30   17   19 1
@<TRIPOS>MOLECULE
ZINC15034685
   33    34     0     0     0
SMALL
USER_CHARGES
(2S)-2-[(5Z)-5-[(2,4-dihydroxyphenyl)methylene]-4-oxo-2-thioxo-thiazolidin-3-yl]butanedioic acid
@<TRIPOS>ATOM
      1 C1          2.8965    5.3578    6.5114 C.ar      1 <0>        -0.1449
      2 C2          2.5505    5.0174    5.2238 C.ar      1 <0>        -0.0685
      3 C3          2.9633    5.8212    4.1536 C.ar      1 <0>        -0.0958
      4 C4          3.7206    6.9792    4.4044 C.ar      1 <0>         0.1484
      5 C5          4.0557    7.3116    5.7043 C.ar      1 <0>        -0.1751
      6 C6          3.6458    6.5042    6.7562 C.ar      1 <0>         0.1259
      7 O1          3.9775    6.8350    8.0305 O.3       1 <0>        -0.4968
      8 O2          4.1214    7.7673    3.3747 O.3       1 <0>        -0.4897
      9 C7          2.6024    5.4603    2.7792 C.2       1 <0>         0.0217
     10 C8          1.5849    4.5889    2.5504 C.2       1 <0>        -0.1749
     11 C9          1.1425    3.9716    1.2865 C.2       1 <0>         0.5504
     12 O3          1.7000    4.2080    0.2303 O.2       1 <0>        -0.4440
     13 N1          0.1098    3.1486    1.3572 N.am      1 <0>        -0.4683
     14 C10        -0.5084    2.8936    2.5284 C.2       1 <0>         0.3060
     15 S1         -1.8522    1.8742    2.8218 S.2       1 <0>        -0.3207
     16 S2          0.4155    3.8757    3.6990 S.3       1 <0>        -0.0059
     17 C11        -0.3773    2.5042    0.1351 C.3       1 <0>         0.0903
     18 H1          0.2303    2.8241   -0.7114 H         1 <0>         0.1127
     19 C12        -0.2811    0.9847    0.2866 C.3       1 <0>        -0.1695
     20 C13         1.1667    0.5819    0.3998 C.2       1 <0>         0.4612
     21 O4          2.0329    1.4233    0.3581 O.co2     1 <0>        -0.6396
     22 C14        -1.8133    2.8955   -0.1010 C.2       1 <0>         0.4774
     23 O5         -2.3725    3.6367    0.6722 O.co2     1 <0>        -0.6242
     24 H2          2.5815    4.7349    7.3355 H         1 <0>         0.1378
     25 H3          1.9652    4.1289    5.0383 H         1 <0>         0.1488
     26 H4          4.6372    8.2002    5.9011 H         1 <0>         0.1368
     27 H5          3.3295    7.4015    8.4711 H         1 <0>         0.3905
     28 H6          3.4936    8.4669    3.1474 H         1 <0>         0.3953
     29 H7          3.1451    5.8869    1.9486 H         1 <0>         0.1613
     30 H8         -0.7249    0.5038   -0.5851 H         1 <0>         0.0927
     31 H9         -0.8158    0.6745    1.1843 H         1 <0>         0.0962
     32 O6          1.4942   -0.7121    0.5415 O.co2     1 <0>        -0.7816
     33 O7         -2.4712    2.4207   -1.1703 O.co2     1 <0>        -0.7539
@<TRIPOS>BOND
     1    1    6 ar
     2    1    2 ar
     3    1   24 1
     4    2    3 ar
     5    2   25 1
     6    3    4 ar
     7    3    9 1
     8    4    5 ar
     9    4    8 1
    10    5    6 ar
    11    5   26 1
    12    6    7 1
    13    7   27 1
    14    8   28 1
    15    9   10 2
    16    9   29 1
    17   10   16 1
    18   10   11 1
    19   11   12 2
    20   11   13 am
    21   13   14 1
    22   13   17 1
    23   14   15 2
    24   14   16 1
    25   17   18 1
    26   17   19 1
    27   17   22 1
    28   19   20 1
    29   19   30 1
    30   19   31 1
    31   20   21 2
    32   20   32 1
    33   22   23 2
    34   22   33 1
@<TRIPOS>MOLECULE
ZINC37584385
   29    29     0     0     0
SMALL
USER_CHARGES

@<TRIPOS>ATOM
      1 C1         -0.0167    1.3775    0.0096 C.ar      1 <0>        -0.0847
      2 C2          1.1843    2.0885    0.0020 C.ar      1 <0>        -0.0718
      3 C3          2.3972    1.3987   -0.0133 C.ar      1 <0>        -0.0666
      4 C4          2.4035    0.0179   -0.0208 C.ar      1 <0>        -0.0704
      5 C5          1.2102   -0.6827   -0.0136 C.ar      1 <0>        -0.1156
      6 C6          0.0021   -0.0041    0.0020 C.ar      1 <0>         0.0953
      7 F1         -1.1592   -0.6944    0.0098 F         1 <0>        -0.1344
      8 Br1         4.0467   -0.9178   -0.0415 Br        1 <0>        -0.0365
      9 C7          1.1716    3.5670    0.0095 C.2       1 <0>         0.5446
     10 O1          0.1137    4.1656    0.0225 O.2       1 <0>        -0.5425
     11 N1          2.3328    4.2510    0.0021 N.am      1 <0>        -0.6695
     12 C8          2.3202    5.7159    0.0096 C.3       1 <0>         0.0725
     13 H1          1.4808    6.0690    0.6087 H         1 <0>         0.0807
     14 C9          3.6287    6.2342    0.6097 C.3       1 <0>        -0.0832
     15 C10         3.7134    5.8226    2.0808 C.3       1 <0>        -0.1780
     16 C11         5.0023    6.3331    2.6718 C.2       1 <0>         0.4910
     17 O2          5.7809    6.9673    1.9805 O.co2     1 <0>        -0.6969
     18 O3          5.2664    6.1119    3.8414 O.co2     1 <0>        -0.7188
     19 C12         2.1788    6.2243   -1.4020 C.2       1 <0>         0.4984
     20 O4          1.6181    7.2859   -1.6143 O.co2     1 <0>        -0.6984
     21 O5          2.6251    5.5740   -2.3317 O.co2     1 <0>        -0.6974
     22 H2         -0.9584    1.9060    0.0260 H         1 <0>         0.1556
     23 H3          3.3295    1.9438   -0.0197 H         1 <0>         0.1481
     24 H4          1.2204   -1.7627   -0.0202 H         1 <0>         0.1452
     25 H5          3.1770    3.7733   -0.0082 H         1 <0>         0.3928
     26 H6          4.4717    5.8096    0.0645 H         1 <0>         0.0616
     27 H7          3.6576    7.3212    0.5342 H         1 <0>         0.0746
     28 H8          2.8704    6.2472    2.6260 H         1 <0>         0.0534
     29 H9          3.6845    4.7356    2.1562 H         1 <0>         0.0508
@<TRIPOS>BOND
     1    1    6 ar
     2    1    2 ar
     3    1   22 1
     4    2    3 ar
     5    2    9 1
     6    3    4 ar
     7    3   23 1
     8    4    5 ar
     9    4    8 1
    10    5    6 ar
    11    5   24 1
    12    6    7 1
    13    9   10 2
    14    9   11 am
    15   11   12 1
    16   11   25 1
    17   12   13 1
    18   12   14 1
    19   12   19 1
    20   14   15 1
    21   14   26 1
    22   14   27 1
    23   15   16 1
    24   15   28 1
    25   15   29 1
    26   16   17 2
    27   16   18 1
    28   19   20 2
    29   19   21 1
@<TRIPOS>MOLECULE
ZINC39899389
   37    38     0     0     0
SMALL
USER_CHARGES

@<TRIPOS>ATOM
      1 C1         -1.9249    4.5914   -0.8099 C.ar      1 <0>        -0.1109
      2 C2         -1.5098    5.8952   -0.9992 C.ar      1 <0>        -0.0140
      3 C3         -0.5416    6.1838   -1.9431 C.ar      1 <0>        -0.6387
      4 C4          0.0143    5.1689   -2.7005 C.ar      1 <0>         0.0607
      5 C5         -0.3960    3.8634   -2.5157 C.ar      1 <0>        -0.1062
      6 C6         -1.3684    3.5701   -1.5683 C.ar      1 <0>         0.1920
      7 N1         -1.7864    2.2483   -1.3786 N.am      1 <0>        -0.6488
      8 C7         -3.0881    1.9783   -1.1570 C.2       1 <0>         0.5377
      9 O1         -3.8832    2.8859   -1.0336 O.2       1 <0>        -0.5391
     10 C8         -3.5557    0.5489   -1.0624 C.3       1 <0>        -0.0766
     11 H1         -2.7197   -0.0924   -0.7834 H         1 <0>         0.0915
     12 C9         -4.6621    0.4380   -0.0111 C.3       1 <0>        -0.0782
     13 C10        -5.3174   -0.9097   -0.0904 C.2       1 <0>        -0.1593
     14 C11        -5.2183   -1.7057   -1.1063 C.2       1 <0>        -0.1480
     15 C12        -4.4260   -1.3963   -2.3427 C.3       1 <0>        -0.0693
     16 C13        -4.1202    0.1004   -2.4164 C.3       1 <0>        -0.1445
     17 H2         -5.0382    0.6478   -2.6301 H         1 <0>         0.0703
     18 C14        -3.1057    0.3615   -3.4997 C.2       1 <0>         0.4975
     19 O2         -3.4751    0.5816   -4.6406 O.co2     1 <0>        -0.6899
     20 O3         -1.9155    0.3528   -3.2353 O.co2     1 <0>        -0.6926
     21 N2          1.0499    5.4824   -3.7105 N.pl3     1 <0>         0.0293
     22 O4          0.9421    5.0598   -4.8381 O.2       1 <0>        -0.1553
     23 O5          2.0036    6.1611   -3.4079 O.3       1 <0>        -0.1191
     24 S1         -0.0153    7.8483   -2.1819 S.o2      1 <0>         2.6854
     25 O6          1.1887    8.0290   -1.3857 O.2       1 <0>        -1.0383
     26 O7          0.2446    8.0092   -3.6041 O.2       1 <0>        -1.0502
     27 O8         -1.1006    8.7038   -1.7278 O.3       1 <0>        -1.0591
     28 H3         -2.6783    4.3660   -0.0696 H         1 <0>         0.1494
     29 H4         -1.9423    6.6900   -0.4096 H         1 <0>         0.1545
     30 H5          0.0383    3.0713   -3.1077 H         1 <0>         0.1513
     31 H6         -1.1393    1.5262   -1.4067 H         1 <0>         0.4234
     32 H7         -4.2323    0.5730    0.9814 H         1 <0>         0.0674
     33 H8         -5.4077    1.2132   -0.1881 H         1 <0>         0.0855
     34 H9         -5.9087   -1.2356    0.7525 H         1 <0>         0.0995
     35 H10        -5.7384   -2.6511   -1.0615 H         1 <0>         0.0978
     36 H11        -3.4887   -1.9521   -2.3197 H         1 <0>         0.0736
     37 H12        -4.9980   -1.6928   -3.2219 H         1 <0>         0.0714
@<TRIPOS>BOND
     1    1    6 ar
     2    1    2 ar
     3    1   28 1
     4    2    3 ar
     5    2   29 1
     6    3    4 ar
     7    3   24 1
     8    4    5 ar
     9    4   21 1
    10    5    6 ar
    11    5   30 1
    12    6    7 1
    13    7    8 am
    14    7   31 1
    15    8    9 2
    16    8   10 1
    17   10   11 1
    18   10   16 1
    19   10   12 1
    20   12   13 1
    21   12   32 1
    22   12   33 1
    23   13   14 2
    24   13   34 1
    25   14   15 1
    26   14   35 1
    27   15   16 1
    28   15   36 1
    29   15   37 1
    30   16   17 1
    31   16   18 1
    32   18   19 2
    33   18   20 1
    34   21   22 2
    35   21   23 1
    36   24   25 2
    37   24   26 2
    38   24   27 1
@<TRIPOS>MOLECULE
ZINC48917001
   41    41     0     0     0
SMALL
USER_CHARGES

@<TRIPOS>ATOM
      1 C1         -0.0172    1.5234    0.0076 C.3       1 <0>        -0.1469
      2 C2          0.0031   -0.0064    0.0016 C.3       1 <0>        -0.1216
      3 C3          0.7422   -0.5115    1.2424 C.3       1 <0>         0.1256
      4 H1          0.2875   -0.0884    2.1381 H         1 <0>         0.1049
      5 C4          0.6689   -2.0417    1.2998 C.3       1 <0>         0.0555
      6 O1          1.4268   -2.5901    0.2188 O.3       1 <0>        -0.3792
      7 C5          2.8216   -2.2800    0.2654 C.3       1 <0>         0.0728
      8 H2          3.2410   -2.6298    1.2087 H         1 <0>         0.0654
      9 C6          3.0052   -0.7621    0.1551 C.3       1 <0>         0.0852
     10 N1          2.1578   -0.1163    1.1712 N.am      1 <0>        -0.6335
     11 C7          2.6631    0.8082    2.0117 C.2       1 <0>         0.7087
     12 O2          1.9287    1.3945    2.7832 O.2       1 <0>        -0.5926
     13 N2          3.9825    1.0829    1.9969 N.am      1 <0>        -0.7007
     14 C8          4.5499    2.0048    2.9840 C.3       1 <0>         0.0926
     15 H3          4.0255    1.8893    3.9326 H         1 <0>         0.0732
     16 C9          6.0345    1.6911    3.1805 C.3       1 <0>        -0.0821
     17 C10         6.1844    0.2979    3.7948 C.3       1 <0>        -0.1749
     18 C11         7.6466   -0.0111    3.9883 C.2       1 <0>         0.4910
     19 O3          8.4906    0.8072    3.6650 O.co2     1 <0>        -0.6973
     20 O4          7.9856   -1.0794    4.4683 O.co2     1 <0>        -0.7202
     21 C12         4.3964    3.4218    2.4945 C.2       1 <0>         0.4984
     22 O5          4.2736    4.3333    3.2949 O.co2     1 <0>        -0.7041
     23 O6          4.3950    3.6567    1.2981 O.co2     1 <0>        -0.7002
     24 C13         3.5374   -2.9683   -0.8986 C.3       1 <0>        -0.1410
     25 H4          1.0055    1.9004   -0.0001 H         1 <0>         0.0612
     26 H5         -0.5437    1.8833   -0.8764 H         1 <0>         0.0445
     27 H6         -0.5278    1.8765    0.9035 H         1 <0>         0.0541
     28 H7         -1.0196   -0.3834    0.0093 H         1 <0>         0.0636
     29 H8          0.5138   -0.3595   -0.8943 H         1 <0>         0.0645
     30 H9          1.0804   -2.3906    2.2469 H         1 <0>         0.0540
     31 H10        -0.3701   -2.3598    1.2142 H         1 <0>         0.0994
     32 H11         4.0497   -0.5048    0.3310 H         1 <0>         0.0888
     33 H12         2.7065   -0.4274   -0.8384 H         1 <0>         0.0710
     34 H13         4.5564    0.6703    1.3326 H         1 <0>         0.3860
     35 H14         6.5426    1.7199    2.2167 H         1 <0>         0.0590
     36 H15         6.4771    2.4315    3.8469 H         1 <0>         0.0724
     37 H16         5.6762    0.2691    4.7587 H         1 <0>         0.0517
     38 H17         5.7417   -0.4425    3.1285 H         1 <0>         0.0492
     39 H18         3.1187   -2.6167   -1.8415 H         1 <0>         0.0626
     40 H19         4.6007   -2.7315   -0.8624 H         1 <0>         0.0761
     41 H20         3.4026   -4.0472   -0.8210 H         1 <0>         0.0627
@<TRIPOS>BOND
     1    1    2 1
     2    1   25 1
     3    1   26 1
     4    1   27 1
     5    2    3 1
     6    2   28 1
     7    2   29 1
     8    3    4 1
     9    3   10 1
    10    3    5 1
    11    5    6 1
    12    5   30 1
    13    5   31 1
    14    6    7 1
    15    7    8 1
    16    7    9 1
    17    7   24 1
    18    9   10 1
    19    9   32 1
    20    9   33 1
    21   10   11 am
    22   11   12 2
    23   11   13 am
    24   13   14 1
    25   13   34 1
    26   14   15 1
    27   14   16 1
    28   14   21 1
    29   16   17 1
    30   16   35 1
    31   16   36 1
    32   17   18 1
    33   17   37 1
    34   17   38 1
    35   18   19 2
    36   18   20 1
    37   21   22 2
    38   21   23 1
    39   24   39 1
    40   24   40 1
    41   24   41 1
@<TRIPOS>MOLECULE
ZINC62280099
   34    35     0     0     0
SMALL
USER_CHARGES

@<TRIPOS>ATOM
      1 C1         -0.0187    1.5258    0.0104 C.3       1 <0>        -0.1279
      2 C2          0.0021   -0.0041    0.0020 C.3       1 <0>         0.0709
      3 H1          0.5293   -0.3651    0.8851 H         1 <0>         0.0964
      4 C3         -1.4117   -0.5257    0.0127 C.2       1 <0>         0.5015
      5 O1         -2.3491    0.2539    0.0259 O.co2     1 <0>        -0.6827
      6 O2         -1.6182   -1.7273    0.0082 O.co2     1 <0>        -0.6788
      7 N1          0.6878   -0.4765   -1.2033 N.pl3     1 <0>        -0.3171
      8 C4          1.8068   -1.2519   -1.2504 C.2       1 <0>         0.0976
      9 C5          2.0892   -1.4452   -2.6010 C.2       1 <0>        -0.0864
     10 N2          1.1551   -0.7965   -3.3183 N.2       1 <0>        -0.2263
     11 N3          0.3156   -0.2230   -2.5305 N.2       1 <0>        -0.0955
     12 C6          3.2097   -2.2202   -3.1451 C.2       1 <0>         0.5654
     13 O3          3.9997   -2.7685   -2.3876 O.co2     1 <0>        -0.6799
     14 O4          3.3548   -2.3185   -4.3567 O.co2     1 <0>        -0.6822
     15 C7          2.5674   -1.7811   -0.1013 C.ar      1 <0>         0.0136
     16 C8          2.8626   -0.9526    0.9839 C.ar      1 <0>        -0.1279
     17 C9          3.5732   -1.4478    2.0570 C.ar      1 <0>        -0.1744
     18 C10         3.9970   -2.7686    2.0628 C.ar      1 <0>         0.0429
     19 C11         3.7061   -3.6023    0.9827 C.ar      1 <0>         0.1840
     20 C12         2.9885   -3.1130   -0.0944 C.ar      1 <0>        -0.0571
     21 N4          4.1350   -4.9347    0.9912 N.pl3     1 <0>        -0.8766
     22 O5          4.6974   -3.2513    3.1226 O.3       1 <0>        -0.3258
     23 C13         4.9607   -2.3432    4.1941 C.3       1 <0>         0.0347
     24 H2          1.0039    1.9031    0.0027 H         1 <0>         0.0381
     25 H3         -0.5459    1.8868   -0.8726 H         1 <0>         0.0684
     26 H4         -0.5289    1.8773    0.9072 H         1 <0>         0.0702
     27 H5          2.5344    0.0763    0.9824 H         1 <0>         0.1153
     28 H6          3.8007   -0.8054    2.8949 H         1 <0>         0.1210
     29 H7          2.7580   -3.7580   -0.9294 H         1 <0>         0.1431
     30 H8          4.6345   -5.2786    1.7483 H         1 <0>         0.3931
     31 H9          3.9326   -5.5142    0.2401 H         1 <0>         0.3973
     32 H10         5.5256   -2.8548    4.9734 H         1 <0>         0.0872
     33 H11         5.5397   -1.4986    3.8206 H         1 <0>         0.0487
     34 H12         4.0176   -1.9836    4.6056 H         1 <0>         0.0492
@<TRIPOS>BOND
     1    1    2 1
     2    1   24 1
     3    1   25 1
     4    1   26 1
     5    2    3 1
     6    2    4 1
     7    2    7 1
     8    4    5 2
     9    4    6 1
    10    7   11 1
    11    7    8 1
    12    8    9 2
    13    8   15 1
    14    9   10 1
    15    9   12 1
    16   10   11 2
    17   12   13 2
    18   12   14 1
    19   15   20 ar
    20   15   16 ar
    21   16   17 ar
    22   16   27 1
    23   17   18 ar
    24   17   28 1
    25   18   19 ar
    26   18   22 1
    27   19   20 ar
    28   19   21 1
    29   20   29 1
    30   21   30 1
    31   21   31 1
    32   22   23 1
    33   23   32 1
    34   23   33 1
    35   23   34 1
@<TRIPOS>MOLECULE
ZINC02431305
   28    29     0     0     0
SMALL
USER_CHARGES
2-[4-oxo-5-(2-thienylmethylene)-2-thioxo-thiazolidin-3-yl]butanedioic acid
@<TRIPOS>ATOM
      1 C1         -0.5052   -2.2686   -0.2279 C.2       1 <0>        -0.1825
      2 C2         -0.7542   -1.0020    0.2395 C.2       1 <0>        -0.1191
      3 C3          0.0230    0.0267   -0.2818 C.2       1 <0>        -0.1873
      4 S1          1.0889   -0.8548   -1.4085 S.3       1 <0>         0.2690
      5 C4          0.4758   -2.4555   -1.1495 C.2       1 <0>        -0.2460
      6 C5         -0.0171    1.4099    0.0098 C.2       1 <0>         0.0856
      7 C6          1.1308    2.1454   -0.0150 C.2       1 <0>        -0.1995
      8 C7          2.4848    1.7118   -0.1483 C.2       1 <0>         0.5434
      9 O1          2.7566    0.5302   -0.2631 O.2       1 <0>        -0.4393
     10 N1          3.4342    2.6314   -0.1439 N.am      1 <0>        -0.4680
     11 C8          3.1320    3.9426   -0.0174 C.2       1 <0>         0.3206
     12 S2          4.1890    5.2890    0.0127 S.2       1 <0>        -0.3202
     13 S3          1.3499    3.9156    0.1028 S.3       1 <0>        -0.0130
     14 C9          4.8347    2.2233   -0.2786 C.3       1 <0>         0.0926
     15 H1          4.8899    1.1385   -0.3694 H         1 <0>         0.1134
     16 C10         5.6178    2.6721    0.9568 C.3       1 <0>        -0.1696
     17 C11         5.1043    1.9406    2.1702 C.2       1 <0>         0.4611
     18 O2          4.2044    1.1422    2.0583 O.co2     1 <0>        -0.6377
     19 C12         5.4278    2.8612   -1.5084 C.2       1 <0>         0.4768
     20 O3          4.7501    3.5827   -2.2013 O.co2     1 <0>        -0.6242
     21 H2         -1.0793   -3.1077    0.1363 H         1 <0>         0.1234
     22 H3         -1.5212   -0.8127    0.9759 H         1 <0>         0.1348
     23 H4          0.7961   -3.3785   -1.6096 H         1 <0>         0.1776
     24 H5         -0.9576    1.8846    0.2477 H         1 <0>         0.1589
     25 H6          6.6754    2.4478    0.8179 H         1 <0>         0.0917
     26 H7          5.4895    3.7452    1.0982 H         1 <0>         0.0951
     27 O4          5.6467    2.1760    3.3752 O.co2     1 <0>        -0.7829
     28 O5          6.7089    2.6278   -1.8341 O.co2     1 <0>        -0.7548
@<TRIPOS>BOND
     1    1    5 2
     2    1    2 1
     3    1   21 1
     4    2    3 2
     5    2   22 1
     6    3    4 1
     7    3    6 1
     8    4    5 1
     9    5   23 1
    10    6    7 2
    11    6   24 1
    12    7   13 1
    13    7    8 1
    14    8    9 2
    15    8   10 am
    16   10   11 1
    17   10   14 1
    18   11   12 2
    19   11   13 1
    20   14   15 1
    21   14   16 1
    22   14   19 1
    23   16   17 1
    24   16   25 1
    25   16   26 1
    26   17   18 2
    27   17   27 1
    28   19   20 2
    29   19   28 1
@<TRIPOS>MOLECULE
ZINC16999900
   29    29     0     0     0
SMALL
USER_CHARGES
(2S,6R)-4-(carboxymethyl)-2,6-dimethyl-tetrahydropyran-4-carboxylic acid
@<TRIPOS>ATOM
      1 C1         -1.3472    1.1950    0.6164 C.3       1 <0>        -0.1333
      2 C2         -0.3301    0.8387   -0.4696 C.3       1 <0>         0.0796
      3 H1         -0.2527   -0.2453   -0.5536 H         1 <0>         0.0539
      4 C3          1.0366    1.4210   -0.0999 C.3       1 <0>        -0.1164
      5 C4          2.0347    1.1116   -1.2200 C.3       1 <0>        -0.0841
      6 C5          1.4983    1.6789   -2.5379 C.3       1 <0>        -0.1199
      7 C6          0.1137    1.0867   -2.8134 C.3       1 <0>         0.0846
      8 H2          0.1969    0.0059   -2.9283 H         1 <0>         0.0546
      9 O1         -0.7565    1.3843   -1.7197 O.3       1 <0>        -0.3912
     10 C7         -0.4547    1.6940   -4.0976 C.3       1 <0>        -0.1357
     11 C8          2.2091   -0.4031   -1.3461 C.3       1 <0>        -0.1303
     12 C9          2.8463   -0.9416   -0.0910 C.2       1 <0>         0.4640
     13 O2          3.1196   -0.1927    0.8169 O.co2     1 <0>        -0.6079
     14 C10         3.3633    1.7473   -0.9012 C.2       1 <0>         0.5039
     15 O3          3.4720    2.4696    0.0613 O.co2     1 <0>        -0.6403
     16 H3         -1.4245    2.2791    0.7003 H         1 <0>         0.0560
     17 H4         -2.3203    0.7807    0.3528 H         1 <0>         0.0482
     18 H5         -1.0214    0.7792    1.5698 H         1 <0>         0.0674
     19 H6          0.9512    2.5006    0.0239 H         1 <0>         0.0535
     20 H7          1.3837    0.9730    0.8312 H         1 <0>         0.0946
     21 H8          1.4222    2.7637   -2.4633 H         1 <0>         0.0543
     22 H9          2.1754    1.4154   -3.3503 H         1 <0>         0.0674
     23 H10         0.2097    1.4677   -4.9315 H         1 <0>         0.0647
     24 H11        -1.4405    1.2722   -4.2936 H         1 <0>         0.0512
     25 H12        -0.5383    2.7747   -3.9824 H         1 <0>         0.0567
     26 H13         1.2348   -0.8705   -1.4882 H         1 <0>         0.0432
     27 H14         2.8470   -0.6255   -2.2015 H         1 <0>         0.0621
     28 O4          3.1101   -2.2531    0.0182 O.co2     1 <0>        -0.8073
     29 O5          4.4260    1.5112   -1.6865 O.co2     1 <0>        -0.7935
@<TRIPOS>BOND
     1    1    2 1
     2    1   16 1
     3    1   17 1
     4    1   18 1
     5    2    3 1
     6    2    9 1
     7    2    4 1
     8    4    5 1
     9    4   19 1
    10    4   20 1
    11    5    6 1
    12    5   11 1
    13    5   14 1
    14    6    7 1
    15    6   21 1
    16    6   22 1
    17    7    8 1
    18    7    9 1
    19    7   10 1
    20   10   23 1
    21   10   24 1
    22   10   25 1
    23   11   12 1
    24   11   26 1
    25   11   27 1
    26   12   13 2
    27   12   28 1
    28   14   15 2
    29   14   29 1
@<TRIPOS>MOLECULE
ZINC34797921
   32    35     0     0     0
SMALL
USER_CHARGES

@<TRIPOS>ATOM
      1 C1         -0.0167    1.3783    0.0096 C.ar      1 <0>        -0.1899
      2 C2          1.1689    2.0904    0.0021 C.ar      1 <0>        -0.1058
      3 C3          2.3797    1.4244   -0.0135 C.ar      1 <0>        -0.1570
      4 C4          2.4082    0.0369   -0.0212 C.ar      1 <0>         0.1354
      5 C5          1.2120   -0.6811   -0.0132 C.ar      1 <0>         0.1173
      6 C6          0.0021   -0.0041    0.0020 C.ar      1 <0>        -0.0976
      7 N1          1.2332   -2.0823   -0.0210 N.am      1 <0>        -0.5792
      8 C7          1.2525   -2.9512    1.1974 C.3       1 <0>         0.1703
      9 C8          1.8714   -4.2086    0.6704 C.3       1 <0>         0.0877
     10 C9          3.3520   -4.0569    0.3731 C.2       1 <0>        -0.1411
     11 C10         3.7525   -5.2393   -0.0708 C.2       1 <0>        -0.1927
     12 C11         2.4849   -6.1023   -0.1012 C.3       1 <0>         0.1072
     13 H1          2.6391   -7.1813   -0.1078 H         1 <0>         0.1246
     14 O1          1.7318   -5.5546    1.0600 O.3       1 <0>        -0.3513
     15 C12         1.7066   -5.5056   -1.3373 C.3       1 <0>        -0.1546
     16 H2          0.9387   -6.1958   -1.6865 H         1 <0>         0.0701
     17 C13         1.0841   -4.2635   -0.7001 C.3       1 <0>        -0.1461
     18 H3          0.0309   -4.4525   -0.4924 H         1 <0>         0.0806
     19 C14         1.2335   -2.8679   -1.1482 C.2       1 <0>         0.5551
     20 O2          1.3391   -2.4857   -2.2946 O.2       1 <0>        -0.4447
     21 C15         2.6551   -5.1472   -2.4522 C.2       1 <0>         0.4964
     22 O3          3.3348   -6.0132   -2.9764 O.co2     1 <0>        -0.7228
     23 O4          2.7428   -3.9913   -2.8301 O.co2     1 <0>        -0.6307
     24 S1          3.9502   -0.8154   -0.0417 S.3       1 <0>        -0.8974
     25 H4         -0.9601    1.9037    0.0260 H         1 <0>         0.1022
     26 H5          1.1484    3.1702    0.0081 H         1 <0>         0.1008
     27 H6          3.3036    1.9836   -0.0200 H         1 <0>         0.1086
     28 H7         -0.9258   -0.5567    0.0079 H         1 <0>         0.1037
     29 H8          1.8704   -2.5111    1.9801 H         1 <0>         0.0804
     30 H9          0.2413   -3.1369    1.5596 H         1 <0>         0.0613
     31 H10         3.9542   -3.1689    0.4971 H         1 <0>         0.1767
     32 H11         4.7537   -5.5317   -0.3507 H         1 <0>         0.1326
@<TRIPOS>BOND
     1    1    6 ar
     2    1    2 ar
     3    1   25 1
     4    2    3 ar
     5    2   26 1
     6    3    4 ar
     7    3   27 1
     8    4    5 ar
     9    4   24 1
    10    5    6 ar
    11    5    7 1
    12    6   28 1
    13    7   19 am
    14    7    8 1
    15    8    9 1
    16    8   29 1
    17    8   30 1
    18    9   14 1
    19    9   17 1
    20    9   10 1
    21   10   11 2
    22   10   31 1
    23   11   12 1
    24   11   32 1
    25   12   13 1
    26   12   14 1
    27   12   15 1
    28   15   16 1
    29   15   17 1
    30   15   21 1
    31   17   18 1
    32   17   19 1
    33   19   20 2
    34   21   22 2
    35   21   23 1
@<TRIPOS>MOLECULE
ZINC13092569
   32    33     0     0     0
SMALL
USER_CHARGES

@<TRIPOS>ATOM
      1 C1         -0.0167    1.3794    0.0096 C.ar      1 <0>        -0.1037
      2 C2          1.1666    2.0885    0.0021 C.ar      1 <0>        -0.0686
      3 C3          2.3851    1.4068   -0.0132 C.ar      1 <0>        -0.0420
      4 C4          2.3967    0.0105   -0.0208 C.ar      1 <0>        -0.0683
      5 C5          1.2059   -0.6859   -0.0132 C.ar      1 <0>        -0.1035
      6 C6          0.0021   -0.0041    0.0020 C.ar      1 <0>        -0.0252
      7 C7         -1.2947   -0.7718    0.0108 C.3       1 <0>        -0.0754
      8 S1         -1.8320   -1.0707   -1.6958 S.3       1 <0>        -0.0363
      9 C8         -3.3396   -1.9651   -1.5176 C.ar      1 <0>         0.2602
     10 N1         -4.0072   -2.3481   -2.5993 N.ar      1 <0>        -0.5786
     11 C9         -5.1434   -3.0223   -2.4588 C.ar      1 <0>         0.4208
     12 O1         -5.8459   -3.4265   -3.5450 O.3       1 <0>        -0.6595
     13 C10        -5.5988   -3.3064   -1.1707 C.ar      1 <0>        -0.0381
     14 N2         -4.8919   -2.8997   -0.1331 N.ar      1 <0>        -0.2056
     15 N3         -3.7922   -2.2531   -0.3032 N.ar      1 <0>        -0.4056
     16 C11        -6.8830   -4.0683   -0.9669 C.3       1 <0>        -0.0108
     17 C12        -6.5832   -5.5677   -0.9121 C.3       1 <0>        -0.1654
     18 C13        -7.8673   -6.3296   -0.7082 C.2       1 <0>         0.4977
     19 O2         -8.9243   -5.7290   -0.6154 O.co2     1 <0>        -0.7014
     20 O3         -7.8493   -7.5465   -0.6362 O.co2     1 <0>        -0.7188
     21 C14         3.6173    2.1363   -0.0215 C.1       1 <0>         0.2644
     22 N4          4.5948    2.7150   -0.0281 N.1       1 <0>        -0.4329
     23 H1         -0.9598    1.9053    0.0260 H         1 <0>         0.1389
     24 H2          1.1505    3.1683    0.0077 H         1 <0>         0.1322
     25 H3          3.3356   -0.5229   -0.0330 H         1 <0>         0.1324
     26 H4          1.2134   -1.7659   -0.0194 H         1 <0>         0.1394
     27 H5         -1.1489   -1.7255    0.5181 H         1 <0>         0.1047
     28 H6         -2.0555   -0.1938    0.5353 H         1 <0>         0.1043
     29 H7         -7.3461   -3.7560   -0.0309 H         1 <0>         0.0618
     30 H8         -7.5622   -3.8636   -1.7944 H         1 <0>         0.0770
     31 H9         -6.1200   -5.8800   -1.8480 H         1 <0>         0.0561
     32 H10        -5.9040   -5.7724   -0.0845 H         1 <0>         0.0499
@<TRIPOS>BOND
     1    1    6 ar
     2    1    2 ar
     3    1   23 1
     4    2    3 ar
     5    2   24 1
     6    3    4 ar
     7    3   21 1
     8    4    5 ar
     9    4   25 1
    10    5    6 ar
    11    5   26 1
    12    6    7 1
    13    7    8 1
    14    7   27 1
    15    7   28 1
    16    8    9 1
    17    9   10 ar
    18    9   15 ar
    19   10   11 ar
    20   11   12 1
    21   11   13 ar
    22   13   14 ar
    23   13   16 1
    24   14   15 ar
    25   16   17 1
    26   16   29 1
    27   16   30 1
    28   17   18 1
    29   17   31 1
    30   17   32 1
    31   18   19 2
    32   18   20 1
    33   21   22 3
@<TRIPOS>MOLECULE
ZINC12358799
   22    21     0     0     0
SMALL
USER_CHARGES

@<TRIPOS>ATOM
      1 C1          1.3152   -0.4620    0.6121 C.3       1 <0>        -0.1496
      2 C2         -0.0641   -0.0171    0.1216 C.3       1 <0>        -0.1040
      3 H1         -0.8352   -0.4761    0.7403 H         1 <0>         0.0195
      4 C3         -0.2523   -0.4509   -1.3334 C.3       1 <0>        -0.1131
      5 H2         -1.2350   -0.1340   -1.6829 H         1 <0>         0.0306
      6 C4         -0.1437   -1.9741   -1.4296 C.3       1 <0>        -0.1520
      7 C5         -0.4844   -2.4145   -2.8299 C.2       1 <0>         0.4919
      8 O1         -0.7862   -1.5869   -3.6729 O.co2     1 <0>        -0.6737
      9 O2         -0.4584   -3.5985   -3.1199 O.co2     1 <0>        -0.7611
     10 C6          0.8138    0.1837   -2.1888 C.2       1 <0>         0.5548
     11 O3          1.9906   -0.0425   -1.9639 O.co2     1 <0>        -0.7262
     12 O4          0.4996    0.9233   -3.1057 O.co2     1 <0>        -0.7263
     13 C7         -0.1711    1.4831    0.2164 C.2       1 <0>         0.5341
     14 O5         -1.1608    1.9936    0.7127 O.co2     1 <0>        -0.7519
     15 O6          0.7321    2.1864   -0.2033 O.co2     1 <0>        -0.7041
     16 C8          1.4533   -0.1443    2.0788 C.2       1 <0>         0.4920
     17 O7          0.5339    0.3886    2.6763 O.co2     1 <0>        -0.6981
     18 O8          2.4846   -0.4202    2.6678 O.co2     1 <0>        -0.7615
     19 H3          1.4255   -1.5358    0.4610 H         1 <0>         0.0235
     20 H4          2.0875    0.0650    0.0519 H         1 <0>         0.0966
     21 H5          0.8740   -2.2816   -1.1895 H         1 <0>         0.0553
     22 H6         -0.8377   -2.4330   -0.7254 H         1 <0>         0.0234
@<TRIPOS>BOND
     1    1    2 1
     2    1   16 1
     3    1   19 1
     4    1   20 1
     5    2    3 1
     6    2    4 1
     7    2   13 1
     8    4    5 1
     9    4    6 1
    10    4   10 1
    11    6    7 1
    12    6   21 1
    13    6   22 1
    14    7    8 2
    15    7    9 1
    16   10   11 2
    17   10   12 1
    18   13   14 2
    19   13   15 1
    20   16   17 2
    21   16   18 1
@<TRIPOS>MOLECULE
ZINC13232185
   48    49     0     0     0
SMALL
USER_CHARGES
2-[3-[2-oxo-2-[(4-sulfamoylphenyl)methylamino]ethyl]sulfanyl-5-propyl-1,2,4-triazol-4-yl]acetic acid
@<TRIPOS>ATOM
      1 C1         -1.8725    4.0980  -11.7274 C.3       1 <0>        -0.1501
      2 C2         -1.5991    3.9125  -10.2335 C.3       1 <0>        -0.1174
      3 C3         -2.3256    2.6622   -9.7336 C.3       1 <0>        -0.0328
      4 C4         -2.0563    2.4794   -8.2621 C.2       1 <0>         0.1965
      5 N1         -2.7627    2.9665   -7.2816 N.2       1 <0>        -0.2969
      6 N2         -2.2527    2.6177   -6.1546 N.2       1 <0>        -0.3071
      7 C5         -1.1839    1.8828   -6.3572 C.2       1 <0>         0.1423
      8 N3         -1.0219    1.7765   -7.7087 N.pl3     1 <0>        -0.4194
      9 C6          0.0379    1.0562   -8.4187 C.3       1 <0>         0.0515
     10 C7         -0.3993   -0.3646   -8.6663 C.2       1 <0>         0.4559
     11 O1         -1.4848   -0.7372   -8.2885 O.co2     1 <0>        -0.6119
     12 S1         -0.1498    1.1739   -5.1191 S.3       1 <0>         0.0819
     13 C8         -0.9970    1.7576   -3.6299 C.3       1 <0>        -0.1504
     14 C9         -0.2681    1.2584   -2.4090 C.2       1 <0>         0.5382
     15 O2          0.7262    0.5752   -2.5335 O.2       1 <0>        -0.5165
     16 N4         -0.7213    1.5711   -1.1789 N.am      1 <0>        -0.7248
     17 C10        -0.0127    1.0858    0.0080 C.3       1 <0>         0.1535
     18 C11        -0.7181    1.5718    1.2479 C.ar      1 <0>        -0.0477
     19 C12        -0.3599    2.7788    1.8186 C.ar      1 <0>        -0.1206
     20 C13        -1.0099    3.2267    2.9534 C.ar      1 <0>        -0.0179
     21 C14        -2.0119    2.4632    3.5227 C.ar      1 <0>        -0.6720
     22 C15        -2.3665    1.2538    2.9550 C.ar      1 <0>        -0.0223
     23 C16        -1.7194    0.8079    1.8177 C.ar      1 <0>        -0.1198
     24 S2         -2.8374    3.0321    4.9717 S.o2      1 <0>         2.7020
     25 O3         -2.6953    4.4458    4.9916 O.2       1 <0>        -0.9618
     26 O4         -4.1068    2.3937    4.9930 O.2       1 <0>        -0.9592
     27 N5         -1.9947    2.4533    6.2745 N.pl3     1 <0>        -1.2481
     28 H1         -1.3550    4.9887  -12.0836 H         1 <0>         0.0553
     29 H2         -1.5129    3.2260  -12.2737 H         1 <0>         0.0575
     30 H3         -2.9444    4.2115  -11.8893 H         1 <0>         0.0569
     31 H4         -1.9588    4.7845   -9.6873 H         1 <0>         0.0685
     32 H5         -0.5272    3.7990  -10.0717 H         1 <0>         0.0603
     33 H6         -1.9660    1.7902  -10.2798 H         1 <0>         0.0858
     34 H7         -3.3975    2.7757   -9.8954 H         1 <0>         0.0970
     35 H8          0.2353    1.5469   -9.3717 H         1 <0>         0.1040
     36 H9          0.9453    1.0571   -7.8148 H         1 <0>         0.1020
     37 H10        -2.0196    1.3803   -3.6222 H         1 <0>         0.1263
     38 H11        -1.0118    2.8475   -3.6239 H         1 <0>         0.1244
     39 H12        -1.5165    2.1175   -1.0793 H         1 <0>         0.4064
     40 H13         0.0021   -0.0041    0.0020 H         1 <0>         0.0859
     41 H14         1.0099    1.4631    0.0003 H         1 <0>         0.0853
     42 H15         0.4255    3.3735    1.3760 H         1 <0>         0.1384
     43 H16        -0.7331    4.1718    3.3968 H         1 <0>         0.1452
     44 H17        -3.1493    0.6573    3.3998 H         1 <0>         0.1457
     45 H18        -1.9965   -0.1370    1.3742 H         1 <0>         0.1392
     46 H19        -1.9813    2.9544    7.1049 H         1 <0>         0.4217
     47 H20        -1.5145    1.6132    6.2071 H         1 <0>         0.4175
     48 O5          0.4172   -1.2161   -9.3066 O.co2     1 <0>        -0.7483
@<TRIPOS>BOND
     1    1    2 1
     2    1   28 1
     3    1   29 1
     4    1   30 1
     5    2    3 1
     6    2   31 1
     7    2   32 1
     8    3    4 1
     9    3   33 1
    10    3   34 1
    11    4    8 1
    12    4    5 2
    13    5    6 1
    14    6    7 2
    15    7    8 1
    16    7   12 1
    17    8    9 1
    18    9   10 1
    19    9   35 1
    20    9   36 1
    21   10   11 2
    22   10   48 1
    23   12   13 1
    24   13   14 1
    25   13   37 1
    26   13   38 1
    27   14   15 2
    28   14   16 am
    29   16   17 1
    30   16   39 1
    31   17   18 1
    32   17   40 1
    33   17   41 1
    34   18   23 ar
    35   18   19 ar
    36   19   20 ar
    37   19   42 1
    38   20   21 ar
    39   20   43 1
    40   21   22 ar
    41   21   24 1
    42   22   23 ar
    43   22   44 1
    44   23   45 1
    45   24   25 2
    46   24   26 2
    47   24   27 1
    48   27   46 1
    49   27   47 1
@<TRIPOS>MOLECULE
ZINC13245333
   52    53     0     0     0
SMALL
USER_CHARGES
(2S)-2-[[2-[(4-acetylphenyl)amino]-2-oxo-ethyl]carbamoylamino]-4-oxo-4-pyrrolidin-1-yl-butanoic acid
@<TRIPOS>ATOM
      1 C1         13.7755   -6.2971    1.8900 C.3       1 <0>        -0.1935
      2 C2         13.6499   -6.5075    0.4030 C.2       1 <0>         0.3976
      3 O1         14.2238   -7.4343   -0.1289 O.2       1 <0>        -0.4657
      4 C3         12.8328   -5.5905   -0.4019 C.ar      1 <0>        -0.1979
      5 C4         12.6202   -5.8489   -1.7619 C.ar      1 <0>        -0.0375
      6 C5         11.8563   -4.9904   -2.5093 C.ar      1 <0>        -0.1615
      7 C6         11.2922   -3.8630   -1.9184 C.ar      1 <0>         0.1893
      8 C7         11.5055   -3.5991   -0.5682 C.ar      1 <0>        -0.1376
      9 C8         12.2633   -4.4552    0.1883 C.ar      1 <0>        -0.0494
     10 N1         10.5167   -2.9933   -2.6819 N.am      1 <0>        -0.6723
     11 C9          9.4749   -2.3492   -2.1195 C.2       1 <0>         0.5145
     12 O2          9.1552   -2.5959   -0.9760 O.2       1 <0>        -0.5090
     13 C10         8.7073   -1.3224   -2.9117 C.3       1 <0>         0.1274
     14 N2          7.6319   -0.7708   -2.0837 N.am      1 <0>        -0.7443
     15 C11         6.8096    0.1711   -2.5869 C.2       1 <0>         0.7228
     16 O3          6.9602    0.5629   -3.7280 O.2       1 <0>        -0.5930
     17 N3          5.8203    0.6786   -1.8252 N.am      1 <0>        -0.7031
     18 C12         4.9265    1.7023   -2.3721 C.3       1 <0>         0.1386
     19 H1          4.7573    1.5086   -3.4313 H         1 <0>         0.0964
     20 C13         3.5908    1.6641   -1.6269 C.3       1 <0>        -0.1261
     21 C14         2.9034    0.3501   -1.8951 C.2       1 <0>         0.5269
     22 O4          3.4299   -0.4746   -2.6118 O.2       1 <0>        -0.5262
     23 N4          1.7034    0.0913   -1.3386 N.am      1 <0>        -0.6270
     24 C15         0.9532    1.0002   -0.4529 C.3       1 <0>         0.0959
     25 C16        -0.5259    0.5630   -0.5971 C.3       1 <0>        -0.1333
     26 C17        -0.3851   -0.9775   -0.7173 C.3       1 <0>        -0.1319
     27 C18         0.9254   -1.1436   -1.5152 C.3       1 <0>         0.1070
     28 C19         5.5566    3.0610   -2.2043 C.2       1 <0>         0.4590
     29 O5          6.6410    3.1635   -1.6815 O.co2     1 <0>        -0.6233
     30 H2         13.3116   -5.4493    2.1470 H         1 <0>         0.0751
     31 H3         13.3180   -7.1353    2.4155 H         1 <0>         0.0949
     32 H4         14.8295   -6.2307    2.1598 H         1 <0>         0.0924
     33 H5         13.0571   -6.7234   -2.2210 H         1 <0>         0.1368
     34 H6         11.6916   -5.1890   -3.5580 H         1 <0>         0.1342
     35 H7         11.0699   -2.7209   -0.1151 H         1 <0>         0.1434
     36 H8         12.4246   -4.2520    1.2366 H         1 <0>         0.1375
     37 H9         10.7264   -2.8514   -3.6183 H         1 <0>         0.4185
     38 H10         8.2794   -1.7923   -3.7973 H         1 <0>         0.0992
     39 H11         9.3801   -0.5203   -3.2152 H         1 <0>         0.1026
     40 H12         7.5118   -1.0834   -1.1734 H         1 <0>         0.4023
     41 H13         5.7002    0.3659   -0.9148 H         1 <0>         0.3855
     42 H14         2.9585    2.4820   -1.9722 H         1 <0>         0.1172
     43 H15         3.7687    1.7692   -0.5566 H         1 <0>         0.0912
     44 H16         1.0766    2.0335   -0.7772 H         1 <0>         0.0825
     45 H17         1.2844    0.8834    0.5789 H         1 <0>         0.0689
     46 H18        -0.9724    0.9858   -1.4971 H         1 <0>         0.0767
     47 H19        -1.1017    0.8348    0.2876 H         1 <0>         0.0830
     48 H20        -0.2970   -1.4348    0.2683 H         1 <0>         0.0744
     49 H21        -1.2268   -1.4001   -1.2659 H         1 <0>         0.0795
     50 H22         1.4881   -1.9944   -1.1310 H         1 <0>         0.0636
     51 H23         0.7001   -1.2920   -2.5713 H         1 <0>         0.0645
     52 O6          4.9131    4.1571   -2.6356 O.co2     1 <0>        -0.7666
@<TRIPOS>BOND
     1    1    2 1
     2    1   30 1
     3    1   31 1
     4    1   32 1
     5    2    3 2
     6    2    4 1
     7    4    9 ar
     8    4    5 ar
     9    5    6 ar
    10    5   33 1
    11    6    7 ar
    12    6   34 1
    13    7    8 ar
    14    7   10 1
    15    8    9 ar
    16    8   35 1
    17    9   36 1
    18   10   11 am
    19   10   37 1
    20   11   12 2
    21   11   13 1
    22   13   14 1
    23   13   38 1
    24   13   39 1
    25   14   15 am
    26   14   40 1
    27   15   16 2
    28   15   17 am
    29   17   18 1
    30   17   41 1
    31   18   19 1
    32   18   20 1
    33   18   28 1
    34   20   21 1
    35   20   42 1
    36   20   43 1
    37   21   22 2
    38   21   23 am
    39   23   27 1
    40   23   24 1
    41   24   25 1
    42   24   44 1
    43   24   45 1
    44   25   26 1
    45   25   46 1
    46   25   47 1
    47   26   27 1
    48   26   48 1
    49   26   49 1
    50   27   50 1
    51   27   51 1
    52   28   29 2
    53   28   52 1
@<TRIPOS>MOLECULE
ZINC24455458
   45    47     0     0     0
SMALL
USER_CHARGES
N'-[2-(1H-indol-3-yl)acetyl]-2-(3-propyl-5-thioxo-1H-1,2,4-triazol-4-yl)acetohydrazide
@<TRIPOS>ATOM
      1 C1         -1.2685    0.1513   -4.4739 C.3       1 <0>        -0.1483
      2 C2         -1.6231   -0.1842   -3.0238 C.3       1 <0>        -0.1199
      3 C3         -2.6936    0.7873   -2.5227 C.3       1 <0>        -0.0273
      4 C4         -3.0428    0.4569   -1.0944 C.2       1 <0>         0.1794
      5 N1         -3.9674   -0.3659   -0.7162 N.2       1 <0>        -0.3282
      6 N2         -3.9819   -0.3917    0.6852 N.2       1 <0>        -0.3848
      7 C5         -3.0180    0.4508    1.1119 C.2       1 <0>         0.3966
      8 S1         -2.6152    0.7881    2.7413 S.3       1 <0>        -0.7814
      9 N3         -2.4300    0.9773    0.0189 N.pl3     1 <0>        -0.4882
     10 C6         -1.3296    1.9443    0.0189 C.3       1 <0>         0.1073
     11 C7         -0.0144    1.2086    0.0087 C.2       1 <0>         0.5097
     12 O1          0.0021   -0.0041    0.0020 O.2       1 <0>        -0.5194
     13 N4          1.1435    1.8983    0.0013 N.am      1 <0>        -0.5380
     14 N5          2.3662    1.2144   -0.0140 N.am      1 <0>        -0.5319
     15 C8          3.5241    1.9041   -0.0214 C.2       1 <0>         0.5123
     16 O2          3.5076    3.1168   -0.0147 O.2       1 <0>        -0.5399
     17 C9          4.8392    1.1684   -0.0379 C.3       1 <0>        -0.0552
     18 C10         5.9712    2.1632   -0.0433 C.2       1 <0>        -0.1576
     19 C11         6.6267    2.6210   -1.1216 C.2       1 <0>         0.0603
     20 N6          7.5901    3.5137   -0.7378 N.pl3     1 <0>        -0.6065
     21 H1          8.2246    3.9975   -1.4950 H         1 <0>         0.4404
     22 C12         7.5836    3.6492    0.6324 C.ar      1 <0>         0.1072
     23 C13         6.5692    2.8092    1.1276 C.ar      1 <0>        -0.0910
     24 C14         6.3297    2.7414    2.5011 C.ar      1 <0>        -0.0672
     25 C15         7.0831    3.4924    3.3590 C.ar      1 <0>        -0.1482
     26 C16         8.0852    4.3221    2.8756 C.ar      1 <0>        -0.1013
     27 C17         8.3383    4.4045    1.5237 C.ar      1 <0>        -0.1339
     28 H2         -0.4989   -0.5472   -4.8342 H         1 <0>         0.0528
     29 H3         -0.8842    1.1805   -4.5287 H         1 <0>         0.0510
     30 H4         -2.1676    0.0617   -5.1013 H         1 <0>         0.0553
     31 H5         -2.0074   -1.2134   -2.9690 H         1 <0>         0.0682
     32 H6         -0.7241   -0.0947   -2.3963 H         1 <0>         0.0648
     33 H7         -2.3093    1.8165   -2.5776 H         1 <0>         0.0694
     34 H8         -3.5927    0.6977   -3.1501 H         1 <0>         0.0896
     35 H9         -1.4007    2.5807   -0.8755 H         1 <0>         0.1098
     36 H10        -1.3922    2.5710    0.9207 H         1 <0>         0.1322
     37 H11         1.1286    2.9982    0.0073 H         1 <0>         0.4532
     38 H12         2.3811    0.1145   -0.0200 H         1 <0>         0.4546
     39 H13         4.9145    0.5320    0.8561 H         1 <0>         0.1043
     40 H14         4.8975    0.5417   -0.9400 H         1 <0>         0.1035
     41 H15         6.4225    2.3294   -2.1413 H         1 <0>         0.1672
     42 H16         5.5518    2.0977    2.8845 H         1 <0>         0.1189
     43 H17         6.8972    3.4400    4.4216 H         1 <0>         0.1210
     44 H18         8.6723    4.9094    3.5661 H         1 <0>         0.1225
     45 H19         9.1198    5.0537    1.1573 H         1 <0>         0.1168
@<TRIPOS>BOND
     1    1    2 1
     2    1   28 1
     3    1   29 1
     4    1   30 1
     5    2    3 1
     6    2   31 1
     7    2   32 1
     8    3    4 1
     9    3   33 1
    10    3   34 1
    11    4    9 1
    12    4    5 2
    13    5    6 1
    14    6    7 2
    15    7    8 1
    16    7    9 1
    17    9   10 1
    18   10   11 1
    19   10   35 1
    20   10   36 1
    21   11   12 2
    22   11   13 am
    23   13   14 1
    24   13   37 1
    25   14   15 am
    26   14   38 1
    27   15   16 2
    28   15   17 1
    29   17   18 1
    30   17   39 1
    31   17   40 1
    32   18   23 1
    33   18   19 2
    34   19   20 1
    35   19   41 1
    36   20   21 1
    37   20   22 1
    38   22   27 ar
    39   22   23 ar
    40   23   24 ar
    41   24   25 ar
    42   24   42 1
    43   25   26 ar
    44   25   43 1
    45   26   27 ar
    46   26   44 1
    47   27   45 1
@<TRIPOS>MOLECULE
ZINC37586100
   47    46     0     0     0
SMALL
USER_CHARGES

@<TRIPOS>ATOM
      1 C1         -1.4947   -0.2633   -0.1274 C.3       1 <0>        -0.1453
      2 C2          0.0142   -0.0750    0.0422 C.3       1 <0>        -0.0910
      3 C3          0.4883   -0.8428    1.2778 C.3       1 <0>        -0.1525
      4 C4          0.7370   -0.6066   -1.1970 C.3       1 <0>        -0.1306
      5 C5          2.2304   -0.2918   -1.0907 C.3       1 <0>         0.1527
      6 H1          2.6270   -0.7186   -0.1695 H         1 <0>         0.1076
      7 C6          2.9543   -0.8853   -2.2717 C.2       1 <0>         0.4974
      8 O1          3.2565   -0.1830   -3.2132 O.2       1 <0>        -0.5011
      9 N1          3.2658   -2.1965   -2.2817 N.am      1 <0>        -0.6059
     10 C7          3.9695   -2.7735   -3.4298 C.3       1 <0>         0.1137
     11 C8          5.4795   -2.6786   -3.2028 C.3       1 <0>        -0.1072
     12 C9          6.2144   -3.2812   -4.4018 C.3       1 <0>        -0.1813
     13 C10         7.7018   -3.1877   -4.1782 C.2       1 <0>         0.4904
     14 O2          8.1340   -2.6857   -3.1546 O.co2     1 <0>        -0.6994
     15 O3          8.4730   -3.6141   -5.0208 O.co2     1 <0>        -0.7089
     16 C11         2.9007   -3.0449   -1.1445 C.3       1 <0>         0.1265
     17 C12         1.9743   -4.1654   -1.6208 C.3       1 <0>        -0.1649
     18 C13         4.1655   -3.6532   -0.5352 C.3       1 <0>        -0.1697
     19 N2          2.4237    1.1604   -1.0789 N.am      1 <0>        -0.7323
     20 C14         2.0078    1.9041   -2.1230 C.2       1 <0>         0.7113
     21 O4          1.4720    1.3698   -3.0748 O.2       1 <0>        -0.5637
     22 N3          2.1856    3.2400   -2.1121 N.am      1 <0>        -0.8717
     23 H2         -1.8470    0.3528   -0.9546 H         1 <0>         0.0536
     24 H3         -1.7087   -1.3112   -0.3379 H         1 <0>         0.0544
     25 H4         -2.0033    0.0342    0.7896 H         1 <0>         0.0529
     26 H5          0.2364    0.9849    0.1657 H         1 <0>         0.0701
     27 H6          0.2660   -1.9028    1.1543 H         1 <0>         0.0570
     28 H7          1.5632   -0.7087    1.3986 H         1 <0>         0.0542
     29 H8         -0.0267   -0.4641    2.1607 H         1 <0>         0.0544
     30 H9          0.5970   -1.6855   -1.2644 H         1 <0>         0.0750
     31 H10         0.3279   -0.1308   -2.0883 H         1 <0>         0.0955
     32 H11         3.6841   -3.8194   -3.5428 H         1 <0>         0.0699
     33 H12         3.7026   -2.2245   -4.3329 H         1 <0>         0.0768
     34 H13         5.7650   -1.6327   -3.0898 H         1 <0>         0.0598
     35 H14         5.7464   -3.2276   -2.2997 H         1 <0>         0.0661
     36 H15         5.9290   -4.3271   -4.5148 H         1 <0>         0.0547
     37 H16         5.9476   -2.7322   -5.3049 H         1 <0>         0.0563
     38 H17         2.3881   -2.4443   -0.3931 H         1 <0>         0.0870
     39 H18         2.4869   -4.7660   -2.3722 H         1 <0>         0.0642
     40 H19         1.7026   -4.7966   -0.7747 H         1 <0>         0.0664
     41 H20         1.0732   -3.7321   -2.0549 H         1 <0>         0.0582
     42 H21         4.8255   -2.8548   -0.1959 H         1 <0>         0.0624
     43 H22         3.8939   -4.2843    0.3109 H         1 <0>         0.0631
     44 H23         4.6782   -4.2537   -1.2867 H         1 <0>         0.0717
     45 H24         2.8511    1.5866   -0.3195 H         1 <0>         0.3976
     46 H25         2.6130    3.6662   -1.3528 H         1 <0>         0.3921
     47 H26         1.8862    3.7753   -2.8636 H         1 <0>         0.4124
@<TRIPOS>BOND
     1    1    2 1
     2    1   23 1
     3    1   24 1
     4    1   25 1
     5    2    3 1
     6    2    4 1
     7    2   26 1
     8    3   27 1
     9    3   28 1
    10    3   29 1
    11    4    5 1
    12    4   30 1
    13    4   31 1
    14    5    6 1
    15    5    7 1
    16    5   19 1
    17    7    8 2
    18    7    9 am
    19    9   10 1
    20    9   16 1
    21   10   11 1
    22   10   32 1
    23   10   33 1
    24   11   12 1
    25   11   34 1
    26   11   35 1
    27   12   13 1
    28   12   36 1
    29   12   37 1
    30   13   14 2
    31   13   15 1
    32   16   17 1
    33   16   18 1
    34   16   38 1
    35   17   39 1
    36   17   40 1
    37   17   41 1
    38   18   42 1
    39   18   43 1
    40   18   44 1
    41   19   20 am
    42   19   45 1
    43   20   21 2
    44   20   22 am
    45   22   46 1
    46   22   47 1
@<TRIPOS>MOLECULE
ZINC59994010
   49    50     0     0     0
SMALL
USER_CHARGES

@<TRIPOS>ATOM
      1 C1         -0.0187    1.5258    0.0104 C.3       1 <0>        -0.1533
      2 C2          0.0021   -0.0041    0.0020 C.3       1 <0>         0.0541
      3 O1          0.6932   -0.4774    1.1597 O.3       1 <0>        -0.3003
      4 C3          0.8021   -1.8251    1.3058 C.ar      1 <0>         0.1081
      5 C4          0.2606   -2.6728    0.3527 C.ar      1 <0>        -0.1751
      6 C5          0.3725   -4.0425    0.5024 C.ar      1 <0>        -0.1167
      7 C6          1.0237   -4.5699    1.6021 C.ar      1 <0>        -0.1178
      8 C7          1.5657   -3.7298    2.5569 C.ar      1 <0>        -0.1742
      9 C8          1.4624   -2.3558    2.4097 C.ar      1 <0>         0.1002
     10 O2          2.0003   -1.5279    3.3449 O.3       1 <0>        -0.2758
     11 C9          2.6636   -2.1429    4.4513 C.3       1 <0>         0.0528
     12 C10         3.1914   -1.0768    5.3763 C.2       1 <0>         0.5113
     13 O3          3.0169    0.0944    5.1140 O.2       1 <0>        -0.5089
     14 N1          3.8575   -1.4247    6.4951 N.am      1 <0>        -0.5166
     15 N2          4.3482   -0.4336    7.3551 N.am      1 <0>        -0.5231
     16 C11         5.0143   -0.7816    8.4739 C.2       1 <0>         0.5727
     17 O4          5.1893   -1.9557    8.7369 O.2       1 <0>        -0.5333
     18 C12         5.5311    0.2622    9.3796 C.ar      1 <0>        -0.1209
     19 C13         5.3269    1.6122    9.0836 C.ar      1 <0>        -0.1399
     20 C14         5.8142    2.5858    9.9382 C.ar      1 <0>         0.2718
     21 C15         6.5058    2.2224   11.0893 C.ar      1 <0>        -0.2082
     22 C16         6.7111    0.8907   11.3876 C.ar      1 <0>        -0.0974
     23 C17         6.2239   -0.0957   10.5433 C.ar      1 <0>         0.0572
     24 O5          6.4220   -1.4052   10.8415 O.3       1 <0>        -0.4815
     25 N3          5.6112    3.9388    9.6434 N.2       1 <0>        -1.0959
     26 S1          6.1935    5.1052   10.6646 S.o2      1 <0>         2.5267
     27 O6          5.4830    4.9108   11.8797 O.2       1 <0>        -1.0290
     28 O7          7.6058    4.9547   10.6192 O.2       1 <0>        -1.0297
     29 C18         5.7078    6.6776    9.9015 C.3       1 <0>        -0.6360
     30 H1          1.0039    1.9031    0.0027 H         1 <0>         0.0682
     31 H2         -0.5459    1.8868   -0.8726 H         1 <0>         0.0769
     32 H3         -0.5289    1.8773    0.9072 H         1 <0>         0.0682
     33 H4         -1.0205   -0.3814    0.0098 H         1 <0>         0.0602
     34 H5          0.5123   -0.3556   -0.8948 H         1 <0>         0.0601
     35 H6         -0.2492   -2.2634   -0.5069 H         1 <0>         0.1345
     36 H7         -0.0499   -4.7021   -0.2411 H         1 <0>         0.1264
     37 H8          1.1087   -5.6405    1.7157 H         1 <0>         0.1278
     38 H9          2.0735   -4.1443    3.4152 H         1 <0>         0.1368
     39 H10         1.9592   -2.7760    4.9909 H         1 <0>         0.0988
     40 H11         3.4920   -2.7501    4.0864 H         1 <0>         0.0987
     41 H12         3.9971   -2.3614    6.7049 H         1 <0>         0.4306
     42 H13         4.2086    0.5031    7.1453 H         1 <0>         0.4359
     43 H14         4.7904    1.8954    8.1901 H         1 <0>         0.1207
     44 H15         6.8843    2.9862   11.7525 H         1 <0>         0.1118
     45 H16         7.2492    0.6160   12.2828 H         1 <0>         0.1186
     46 H17         7.2401   -1.7717   10.4790 H         1 <0>         0.3699
     47 H18         4.6219    6.7207    9.8177 H         1 <0>         0.1162
     48 H19         6.0576    7.5047   10.5194 H         1 <0>         0.1021
     49 H20         6.1521    6.7523    8.9090 H         1 <0>         0.1161
@<TRIPOS>BOND
     1    1    2 1
     2    1   30 1
     3    1   31 1
     4    1   32 1
     5    2    3 1
     6    2   33 1
     7    2   34 1
     8    3    4 1
     9    4    9 ar
    10    4    5 ar
    11    5    6 ar
    12    5   35 1
    13    6    7 ar
    14    6   36 1
    15    7    8 ar
    16    7   37 1
    17    8    9 ar
    18    8   38 1
    19    9   10 1
    20   10   11 1
    21   11   12 1
    22   11   39 1
    23   11   40 1
    24   12   13 2
    25   12   14 am
    26   14   15 1
    27   14   41 1
    28   15   16 am
    29   15   42 1
    30   16   17 2
    31   16   18 1
    32   18   23 ar
    33   18   19 ar
    34   19   20 ar
    35   19   43 1
    36   20   21 ar
    37   20   25 1
    38   21   22 ar
    39   21   44 1
    40   22   23 ar
    41   22   45 1
    42   23   24 1
    43   24   46 1
    44   25   26 1
    45   26   27 2
    46   26   28 2
    47   26   29 1
    48   29   47 1
    49   29   48 1
    50   29   49 1
@<TRIPOS>MOLECULE
ZINC13274657
   30    30     0     0     0
SMALL
USER_CHARGES
2-[[2-(2-carboxyethylsulfanyl)acetyl]amino]-4-fluoro-benzoic acid
@<TRIPOS>ATOM
      1 C1          1.1523   -0.7187    0.0027 C.ar      1 <0>        -0.1907
      2 C2          0.1234   -0.0284   -0.5982 C.ar      1 <0>        -0.0322
      3 C3          0.1284    1.3694   -0.5995 C.ar      1 <0>        -0.1564
      4 C4          1.1857    2.0609    0.0138 C.ar      1 <0>         0.2127
      5 C5          2.2142    1.3505    0.6145 C.ar      1 <0>        -0.1760
      6 C6          2.1967   -0.0329    0.6079 C.ar      1 <0>         0.1109
      7 F1          3.2013   -0.7202    1.1942 F         1 <0>        -0.1462
      8 N1          1.2016    3.4534    0.0183 N.am      1 <0>        -0.6466
      9 C7          2.3724    4.1143   -0.0763 C.2       1 <0>         0.5295
     10 O1          3.4019    3.5006   -0.2613 O.2       1 <0>        -0.5125
     11 C8          2.4022    5.6159    0.0480 C.3       1 <0>        -0.1222
     12 S1          4.1102    6.2029   -0.1221 S.3       1 <0>        -0.2156
     13 C9          3.9744    8.0037    0.0490 C.3       1 <0>        -0.0679
     14 C10         5.3629    8.6340   -0.0762 C.3       1 <0>        -0.1401
     15 C11         5.2501   10.1300    0.0660 C.2       1 <0>         0.4688
     16 O2          4.1700   10.6398    0.2487 O.co2     1 <0>        -0.6396
     17 C12        -0.9662    2.1129   -1.2459 C.2       1 <0>         0.4992
     18 O3         -1.0065    3.3250   -1.1677 O.co2     1 <0>        -0.6296
     19 H1          1.1469   -1.7987    0.0028 H         1 <0>         0.1290
     20 H2         -0.6864   -0.5665   -1.0683 H         1 <0>         0.1432
     21 H3          3.0296    1.8776    1.0874 H         1 <0>         0.1426
     22 H4          0.3700    3.9477    0.0895 H         1 <0>         0.4292
     23 H5          1.7865    6.0576   -0.7355 H         1 <0>         0.1138
     24 H6          2.0132    5.9075    1.0235 H         1 <0>         0.1101
     25 H7          3.3256    8.3952   -0.7345 H         1 <0>         0.0805
     26 H8          3.5524    8.2452    1.0246 H         1 <0>         0.0794
     27 H9          6.0116    8.2425    0.7074 H         1 <0>         0.0734
     28 H10         5.7849    8.3925   -1.0517 H         1 <0>         0.0741
     29 O4          6.3495   10.8963   -0.0104 O.co2     1 <0>        -0.7730
     30 O5         -1.9232    1.4492   -1.9241 O.co2     1 <0>        -0.7481
@<TRIPOS>BOND
     1    1    6 ar
     2    1    2 ar
     3    1   19 1
     4    2    3 ar
     5    2   20 1
     6    3    4 ar
     7    3   17 1
     8    4    5 ar
     9    4    8 1
    10    5    6 ar
    11    5   21 1
    12    6    7 1
    13    8    9 am
    14    8   22 1
    15    9   10 2
    16    9   11 1
    17   11   12 1
    18   11   23 1
    19   11   24 1
    20   12   13 1
    21   13   14 1
    22   13   25 1
    23   13   26 1
    24   14   15 1
    25   14   27 1
    26   14   28 1
    27   15   16 2
    28   15   29 1
    29   17   18 2
    30   17   30 1
@<TRIPOS>MOLECULE
ZINC36550935
   34    35     0     0     0
SMALL
USER_CHARGES

@<TRIPOS>ATOM
      1 C1         -0.0167    1.3786    0.0096 C.ar      1 <0>        -0.0807
      2 C2          1.1689    2.0869    0.0021 C.ar      1 <0>        -0.2020
      3 C3          2.3811    1.4088   -0.0131 C.ar      1 <0>         0.1877
      4 C4          2.3964    0.0198   -0.0206 C.ar      1 <0>        -0.1929
      5 C5          1.2071   -0.6823   -0.0130 C.ar      1 <0>        -0.0580
      6 C6          0.0021   -0.0041    0.0020 C.ar      1 <0>        -0.0997
      7 C7         -1.2936   -0.7736    0.0107 C.3       1 <0>        -0.0436
      8 H1         -2.1307   -0.0755    0.0227 H         1 <0>         0.0560
      9 C8         -1.3515   -1.6608    1.2558 C.3       1 <0>        -0.0964
     10 C9         -2.6670   -2.4420    1.2647 C.3       1 <0>        -0.0909
     11 C10        -2.7496   -3.3159    0.0115 C.3       1 <0>        -0.1396
     12 H2         -3.6868   -3.8724    0.0178 H         1 <0>         0.0395
     13 C11        -2.6917   -2.4286   -1.2337 C.3       1 <0>        -0.1207
     14 H3         -3.5288   -1.7306   -1.2216 H         1 <0>         0.0238
     15 C12        -1.3763   -1.6474   -1.2425 C.3       1 <0>        -0.0923
     16 C13        -2.7731   -3.2893   -2.4680 C.2       1 <0>         0.4901
     17 O1         -3.4346   -2.9227   -3.4243 O.co2     1 <0>        -0.7531
     18 O2         -2.1774   -4.3523   -2.5104 O.co2     1 <0>        -0.6378
     19 C14        -1.5923   -4.2810   -0.0052 C.2       1 <0>         0.5079
     20 O3         -1.4533   -5.0818    0.9036 O.co2     1 <0>        -0.7517
     21 O4         -0.7951   -4.2610   -0.9274 O.co2     1 <0>        -0.6307
     22 N1          3.5820    2.1220   -0.0212 N.pl3     1 <0>        -0.8888
     23 H4         -0.9595    1.9052    0.0260 H         1 <0>         0.1149
     24 H5          1.1535    3.1668    0.0077 H         1 <0>         0.1084
     25 H6          3.3371   -0.5105   -0.0328 H         1 <0>         0.1132
     26 H7          1.2182   -1.7622   -0.0189 H         1 <0>         0.1323
     27 H8         -0.5145   -2.3589    1.2438 H         1 <0>         0.0678
     28 H9         -1.2927   -1.0383    2.1486 H         1 <0>         0.0370
     29 H10        -2.7083   -3.0741    2.1517 H         1 <0>         0.0515
     30 H11        -3.5041   -1.7440    1.2767 H         1 <0>         0.0322
     31 H12        -1.3350   -1.0153   -2.1295 H         1 <0>         0.0295
     32 H13        -0.5392   -2.3455   -1.2545 H         1 <0>         0.1062
     33 H14         3.5702    3.0919   -0.0162 H         1 <0>         0.3894
     34 H15         4.4279    1.6474   -0.0318 H         1 <0>         0.3915
@<TRIPOS>BOND
     1    1    6 ar
     2    1    2 ar
     3    1   23 1
     4    2    3 ar
     5    2   24 1
     6    3    4 ar
     7    3   22 1
     8    4    5 ar
     9    4   25 1
    10    5    6 ar
    11    5   26 1
    12    6    7 1
    13    7    8 1
    14    7   15 1
    15    7    9 1
    16    9   10 1
    17    9   27 1
    18    9   28 1
    19   10   11 1
    20   10   29 1
    21   10   30 1
    22   11   12 1
    23   11   13 1
    24   11   19 1
    25   13   14 1
    26   13   15 1
    27   13   16 1
    28   15   31 1
    29   15   32 1
    30   16   17 2
    31   16   18 1
    32   19   20 2
    33   19   21 1
    34   22   33 1
    35   22   34 1
@<TRIPOS>MOLECULE
ZINC38701479
   32    33     0     0     0
SMALL
USER_CHARGES

@<TRIPOS>ATOM
      1 C1          0.7671   -0.1760   -1.1528 C.ar      1 <0>        -0.0114
      2 C2          1.8934    0.5815   -1.3043 C.ar      1 <0>        -0.1090
      3 C3          2.1946    1.5816   -0.3737 C.ar      1 <0>        -0.1247
      4 C4          1.3429    1.8063    0.7131 C.ar      1 <0>        -0.1138
      5 C5          0.2162    1.0497    0.8661 C.ar      1 <0>        -0.1156
      6 C6         -0.0863    0.0486   -0.0654 C.ar      1 <0>        -0.0657
      7 C7         -1.2988   -0.7657    0.0982 C.2       1 <0>         0.0023
      8 C8         -1.2464   -2.1062   -0.0971 C.2       1 <0>        -0.2075
      9 C9          0.0525   -2.7770   -0.2440 C.2       1 <0>         0.5336
     10 O1          1.0886   -2.1494   -0.0691 O.co2     1 <0>        -0.6463
     11 O2          0.0984   -3.9634   -0.5413 O.co2     1 <0>        -0.6883
     12 S1         -2.7361   -3.0441   -0.1747 S.3       1 <0>         0.0662
     13 C10        -2.6636   -4.0780    1.2502 C.2       1 <0>         0.4533
     14 N1         -1.6778   -3.9331    2.1218 N.2       1 <0>        -0.6091
     15 C11        -1.5643   -4.6960    3.1993 C.2       1 <0>         0.5050
     16 O3         -0.6508   -4.4965    3.9762 O.2       1 <0>        -0.4950
     17 C12        -2.5444   -5.8054    3.4821 C.3       1 <0>        -0.2078
     18 C13        -3.8926   -5.4530    2.8384 C.3       1 <0>         0.1234
     19 N2         -3.6294   -5.0250    1.4561 N.pl3     1 <0>        -0.7358
     20 C14         3.4108    2.3989   -0.5381 C.2       1 <0>         0.5236
     21 O4          4.1559    2.2024   -1.4880 O.co2     1 <0>        -0.6960
     22 O5          3.6746    3.2734    0.2753 O.co2     1 <0>        -0.7007
     23 H1          0.5323   -0.9451   -1.8738 H         1 <0>         0.1052
     24 H2          2.5518    0.4081   -2.1427 H         1 <0>         0.1157
     25 H3          1.5766    2.5781    1.4315 H         1 <0>         0.1153
     26 H4         -0.4410    1.2231    1.7053 H         1 <0>         0.1036
     27 H5         -2.2315   -0.2962    0.3741 H         1 <0>         0.1128
     28 H6         -2.1712   -6.7385    3.0601 H         1 <0>         0.0956
     29 H7         -2.6714   -5.9146    4.5591 H         1 <0>         0.0987
     30 H8         -4.5426   -6.3279    2.8388 H         1 <0>         0.0928
     31 H9         -4.3647   -4.6402    3.3903 H         1 <0>         0.0701
     32 H10        -4.1245   -5.4050    0.7136 H         1 <0>         0.4098
@<TRIPOS>BOND
     1    1    6 ar
     2    1    2 ar
     3    1   23 1
     4    2    3 ar
     5    2   24 1
     6    3    4 ar
     7    3   20 1
     8    4    5 ar
     9    4   25 1
    10    5    6 ar
    11    5   26 1
    12    6    7 1
    13    7    8 2
    14    7   27 1
    15    8    9 1
    16    8   12 1
    17    9   10 2
    18    9   11 1
    19   12   13 1
    20   13   19 1
    21   13   14 2
    22   14   15 1
    23   15   16 2
    24   15   17 1
    25   17   18 1
    26   17   28 1
    27   17   29 1
    28   18   19 1
    29   18   30 1
    30   18   31 1
    31   19   32 1
    32   20   21 2
    33   20   22 1
@<TRIPOS>MOLECULE
ZINC44935652
   33    34     0     0     0
SMALL
USER_CHARGES

@<TRIPOS>ATOM
      1 C1         -0.0187    1.5258    0.0104 C.3       1 <0>        -0.1438
      2 C2          0.0021   -0.0041    0.0020 C.3       1 <0>         0.2776
      3 H1          0.5123   -0.3556   -0.8948 H         1 <0>         0.0903
      4 C3          0.7309   -0.5033    1.2229 C.2       1 <0>         0.0583
      5 N1          1.9548   -1.0099    1.2604 N.2       1 <0>        -0.3798
      6 N2          2.2123   -1.3166    2.4860 N.2       1 <0>        -0.2039
      7 N3          1.1936   -1.0199    3.2154 N.2       1 <0>        -0.2054
      8 N4          0.2736   -0.5148    2.4665 N.2       1 <0>        -0.3839
      9 N5         -1.3723   -0.5112    0.0124 N.am      1 <0>        -0.7399
     10 C4         -2.0508   -0.6427   -1.1446 C.2       1 <0>         0.7149
     11 O1         -1.5223   -0.3406   -2.1971 O.2       1 <0>        -0.5742
     12 N6         -3.3153   -1.1092   -1.1351 N.am      1 <0>        -0.7220
     13 C5         -4.0528   -1.2522   -2.3928 C.3       1 <0>         0.1234
     14 C6         -4.2968    0.1342   -3.0387 C.3       1 <0>        -0.1114
     15 C7         -5.5223    0.6657   -2.2546 C.3       1 <0>        -0.1210
     16 C8         -6.4043   -0.5816   -2.0403 C.3       1 <0>        -0.1178
     17 C9         -5.4700   -1.8011   -2.1282 C.3       1 <0>        -0.1112
     18 C10        -3.3062   -2.1549   -3.3408 C.2       1 <0>         0.5023
     19 O2         -2.2482   -2.6558   -2.9997 O.co2     1 <0>        -0.6654
     20 O3         -3.7600   -2.3841   -4.4490 O.co2     1 <0>        -0.7138
     21 H2          1.0039    1.9031    0.0027 H         1 <0>         0.0537
     22 H3         -0.5459    1.8868   -0.8726 H         1 <0>         0.0570
     23 H4         -0.5289    1.8773    0.9072 H         1 <0>         0.0514
     24 H5         -1.7940   -0.7522    0.8520 H         1 <0>         0.3909
     25 H6         -3.7369   -1.3503   -0.2954 H         1 <0>         0.3774
     26 H7         -3.4342    0.7847   -2.8947 H         1 <0>         0.0702
     27 H8         -4.5314    0.0309   -4.0982 H         1 <0>         0.0730
     28 H9         -5.2108    1.0819   -1.2965 H         1 <0>         0.0573
     29 H10        -6.0554    1.4138   -2.8413 H         1 <0>         0.0525
     30 H11        -6.8750   -0.5418   -1.0579 H         1 <0>         0.0523
     31 H12        -7.1662   -0.6382   -2.8177 H         1 <0>         0.0564
     32 H13        -5.7785   -2.4494   -2.9483 H         1 <0>         0.0792
     33 H14        -5.4872   -2.3531   -1.1885 H         1 <0>         0.0555
@<TRIPOS>BOND
     1    1    2 1
     2    1   21 1
     3    1   22 1
     4    1   23 1
     5    2    3 1
     6    2    4 1
     7    2    9 1
     8    4    5 1
     9    4    8 2
    10    5    6 1
    11    6    7 2
    12    7    8 1
    13    9   10 am
    14    9   24 1
    15   10   11 2
    16   10   12 am
    17   12   13 1
    18   12   25 1
    19   13   17 1
    20   13   14 1
    21   13   18 1
    22   14   15 1
    23   14   26 1
    24   14   27 1
    25   15   16 1
    26   15   28 1
    27   15   29 1
    28   16   17 1
    29   16   30 1
    30   16   31 1
    31   17   32 1
    32   17   33 1
    33   18   19 2
    34   18   20 1
@<TRIPOS>MOLECULE
ZINC59607384
   44    44     0     0     0
SMALL
USER_CHARGES

@<TRIPOS>ATOM
      1 C1          2.9597   -1.0023   -4.7415 C.3       1 <0>        -0.1066
      2 C2          2.7348   -0.8359   -3.2607 C.ar      1 <0>        -0.0943
      3 C3          3.4322   -1.6247   -2.3652 C.ar      1 <0>        -0.0844
      4 C4          3.2272   -1.4731   -1.0015 C.ar      1 <0>         0.1454
      5 C5          2.3155   -0.5224   -0.5387 C.ar      1 <0>         0.1657
      6 C6          1.6204    0.2645   -1.4456 C.ar      1 <0>        -0.0614
      7 C7          1.8355    0.1095   -2.8021 C.ar      1 <0>        -0.0880
      8 C8          1.0834    0.9694   -3.7848 C.3       1 <0>        -0.1097
      9 C9          0.6351    1.2921   -0.9515 C.3       1 <0>        -0.1265
     10 N1          2.1033   -0.3642    0.8341 N.am      1 <0>        -0.6982
     11 C10         2.5369    0.7483    1.4592 C.2       1 <0>         0.5478
     12 O1          2.9817    1.6753    0.8112 O.2       1 <0>        -0.4362
     13 C11         2.4713    0.8411    2.9327 C.2       1 <0>        -0.1937
     14 C12         2.7351    2.0075    3.5446 C.2       1 <0>        -0.1188
     15 C13         2.5768    3.2763    2.8120 C.2       1 <0>         0.5051
     16 O2          2.0618    3.2818    1.7028 O.co2     1 <0>        -0.6496
     17 O3          2.9604    4.3238    3.3132 O.co2     1 <0>        -0.7102
     18 N2          3.9311   -2.2700   -0.0936 N.am      1 <0>        -0.6945
     19 C14         5.1943   -1.9476    0.2479 C.2       1 <0>         0.5569
     20 O4          5.7114   -0.9478   -0.2107 O.2       1 <0>        -0.4748
     21 C15         5.9508   -2.8096    1.1798 C.2       1 <0>        -0.2213
     22 C16         7.0186   -2.3198    1.8312 C.2       1 <0>        -0.1085
     23 C17         7.0712   -0.8916    2.1906 C.2       1 <0>         0.4932
     24 O5          6.0902   -0.1816    2.0201 O.co2     1 <0>        -0.6318
     25 O6          8.0959   -0.4163    2.6593 O.co2     1 <0>        -0.7068
     26 C18         4.4148   -2.6496   -2.8702 C.3       1 <0>        -0.1031
     27 H1          3.7667   -0.3437   -5.0627 H         1 <0>         0.0644
     28 H2          3.2287   -2.0370   -4.9542 H         1 <0>         0.0631
     29 H3          2.0464   -0.7465   -5.2787 H         1 <0>         0.0614
     30 H4          0.1494    0.4780   -4.0572 H         1 <0>         0.0615
     31 H5          0.8662    1.9359   -3.3300 H         1 <0>         0.0714
     32 H6          1.6906    1.1164   -4.6780 H         1 <0>         0.0616
     33 H7          1.1492    2.0113   -0.3139 H         1 <0>         0.1117
     34 H8          0.1940    1.8112   -1.8024 H         1 <0>         0.0565
     35 H9         -0.1506    0.7972   -0.3807 H         1 <0>         0.0553
     36 H10         1.6440   -1.0551    1.3367 H         1 <0>         0.3901
     37 H11         2.2114   -0.0288    3.5175 H         1 <0>         0.1004
     38 H12         3.0633    2.0154    4.5736 H         1 <0>         0.1063
     39 H13         3.5102   -3.0550    0.2905 H         1 <0>         0.3928
     40 H14         5.6451   -3.8334    1.3372 H         1 <0>         0.1117
     41 H15         7.8386   -2.9727    2.0916 H         1 <0>         0.1074
     42 H16         5.4010   -2.1942   -2.9599 H         1 <0>         0.0672
     43 H17         4.4620   -3.4836   -2.1699 H         1 <0>         0.0603
     44 H18         4.0920   -3.0125   -3.8460 H         1 <0>         0.0612
@<TRIPOS>BOND
     1    1    2 1
     2    1   27 1
     3    1   28 1
     4    1   29 1
     5    2    7 ar
     6    2    3 ar
     7    3    4 ar
     8    3   26 1
     9    4    5 ar
    10    4   18 1
    11    5    6 ar
    12    5   10 1
    13    6    7 ar
    14    6    9 1
    15    7    8 1
    16    8   30 1
    17    8   31 1
    18    8   32 1
    19    9   33 1
    20    9   34 1
    21    9   35 1
    22   10   11 am
    23   10   36 1
    24   11   12 2
    25   11   13 1
    26   13   14 2
    27   13   37 1
    28   14   15 1
    29   14   38 1
    30   15   16 2
    31   15   17 1
    32   18   19 am
    33   18   39 1
    34   19   20 2
    35   19   21 1
    36   21   22 2
    37   21   40 1
    38   22   23 1
    39   22   41 1
    40   23   24 2
    41   23   25 1
    42   26   42 1
    43   26   43 1
    44   26   44 1
@<TRIPOS>MOLECULE
ZINC01689744
   19    19     0     0     0
SMALL
USER_CHARGES
3-chloro-4-hydrazino-benzenesulfonic acid
@<TRIPOS>ATOM
      1 C1          1.2085   -0.6772   -0.0131 C.ar      1 <0>         0.0185
      2 C2          0.0021   -0.0041    0.0020 C.ar      1 <0>        -0.2001
      3 C3         -0.0168    1.3842    0.0097 C.ar      1 <0>         0.2521
      4 C4          1.1796    2.0924    0.0020 C.ar      1 <0>        -0.1331
      5 C5          2.3824    1.4127   -0.0131 C.ar      1 <0>         0.0260
      6 C6          2.3966    0.0296   -0.0211 C.ar      1 <0>        -0.7004
      7 S1          3.9326   -0.8335   -0.0410 S.o2      1 <0>         2.7024
      8 O1          4.9022    0.0503    0.5050 O.2       1 <0>        -1.0576
      9 O2          3.6821   -2.1211    0.5054 O.2       1 <0>        -1.0576
     10 Cl1         1.1622    3.8283    0.0109 Cl        1 <0>        -0.0869
     11 N1         -1.2354    2.0681    0.0192 N.pl3     1 <0>        -0.5969
     12 N2         -2.4100    1.3707    0.0209 N.3       1 <0>        -0.6011
     13 H1          1.2234   -1.7571   -0.0191 H         1 <0>         0.1407
     14 H2         -0.9255   -0.5572    0.0075 H         1 <0>         0.1342
     15 H3          3.3124    1.9618   -0.0190 H         1 <0>         0.1449
     16 H4         -1.2473    3.0380    0.0245 H         1 <0>         0.4037
     17 H5         -2.4486    0.7294    0.7990 H         1 <0>         0.3342
     18 H6         -3.2018    1.9960    0.0281 H         1 <0>         0.3544
     19 O3          4.3105   -1.0461   -1.4999 O.3       1 <0>        -1.0775
@<TRIPOS>BOND
     1    1    6 ar
     2    1    2 ar
     3    1   13 1
     4    2    3 ar
     5    2   14 1
     6    3    4 ar
     7    3   11 1
     8    4    5 ar
     9    4   10 1
    10    5    6 ar
    11    5   15 1
    12    6    7 1
    13    7    8 2
    14    7    9 2
    15    7   19 1
    16   11   12 1
    17   11   16 1
    18   12   17 1
    19   12   18 1
@<TRIPOS>MOLECULE
ZINC35271399
   41    41     0     0     0
SMALL
USER_CHARGES

@<TRIPOS>ATOM
      1 C1          0.2413    1.0559   -0.5572 C.3       1 <0>        -0.1871
      2 C2          0.1073   -0.4145   -0.1561 C.3       1 <0>        -0.0096
      3 C3         -1.3744   -0.7816   -0.0518 C.3       1 <0>        -0.1361
      4 C4         -2.0446    0.0985    1.0051 C.3       1 <0>         0.1148
      5 H1         -3.1002   -0.1630    1.0795 H         1 <0>         0.0495
      6 C5         -1.3674   -0.1247    2.3588 C.3       1 <0>        -0.0566
      7 H2         -1.4629   -1.1722    2.6445 H         1 <0>         0.0846
      8 C6          0.1143    0.2424    2.2544 C.3       1 <0>         0.1263
      9 H3          0.5968    0.0834    3.2188 H         1 <0>         0.0824
     10 C7          0.7845   -0.6377    1.1975 C.3       1 <0>        -0.0291
     11 H4          0.6890   -1.6852    1.4833 H         1 <0>         0.0819
     12 C8          2.2439   -0.2761    1.0947 C.2       1 <0>        -0.0988
     13 C9          3.1265   -1.1949    0.7898 C.2       1 <0>        -0.1899
     14 C10         2.6880    1.1425    1.3427 C.3       1 <0>         0.1118
     15 O1          4.0993    1.2418    1.1419 O.3       1 <0>        -0.5840
     16 O2          0.2395    1.6157    1.8798 O.3       1 <0>        -0.5409
     17 C11        -2.0276    0.7422    3.3998 C.2       1 <0>        -0.1870
     18 C12        -2.9960    1.5867    3.0469 C.2       1 <0>        -0.1566
     19 C13        -1.6041    0.6563    4.8017 C.2       1 <0>         0.5130
     20 O3         -2.1942    1.2992    5.6597 O.co2     1 <0>        -0.6948
     21 O4         -0.6607   -0.0582    5.1133 O.co2     1 <0>        -0.6932
     22 O5         -1.9194    1.4718    0.6305 O.3       1 <0>        -0.5306
     23 C14         0.7675   -1.2814   -1.1972 C.2       1 <0>        -0.1373
     24 C15         1.3177   -0.7338   -2.2524 C.2       1 <0>        -0.2001
     25 H5          1.2943    1.2993   -0.6988 H         1 <0>         0.0423
     26 H6         -0.3000    1.2296   -1.4872 H         1 <0>         0.0259
     27 H7         -0.1748    1.6862    0.2286 H         1 <0>         0.1591
     28 H8         -1.8569   -0.6226   -1.0162 H         1 <0>         0.0623
     29 H9         -1.4699   -1.8291    0.2340 H         1 <0>         0.0662
     30 H10         4.1723   -0.9358    0.7162 H         1 <0>         0.1040
     31 H11         2.8082   -2.2116    0.6121 H         1 <0>         0.0871
     32 H12         2.1747    1.8101    0.6507 H         1 <0>         0.0753
     33 H13         2.4460    1.4251    2.3672 H         1 <0>         0.0629
     34 H14         4.4554    2.1294    1.2847 H         1 <0>         0.3745
     35 H15        -0.2208    2.2280    2.4700 H         1 <0>         0.3704
     36 H16        -3.4016    2.2766    3.7721 H         1 <0>         0.0942
     37 H17        -3.3752    1.5813    2.0357 H         1 <0>         0.0974
     38 H18        -2.3271    1.6863   -0.2197 H         1 <0>         0.3599
     39 H19         0.7870   -2.3541   -1.0733 H         1 <0>         0.0976
     40 H20         1.3484    0.3414   -2.3488 H         1 <0>         0.1020
     41 H21         1.7405   -1.3576   -3.0260 H         1 <0>         0.0862
@<TRIPOS>BOND
     1    1    2 1
     2    1   25 1
     3    1   26 1
     4    1   27 1
     5    2   10 1
     6    2    3 1
     7    2   23 1
     8    3    4 1
     9    3   28 1
    10    3   29 1
    11    4    5 1
    12    4    6 1
    13    4   22 1
    14    6    7 1
    15    6    8 1
    16    6   17 1
    17    8    9 1
    18    8   10 1
    19    8   16 1
    20   10   11 1
    21   10   12 1
    22   12   13 2
    23   12   14 1
    24   13   30 1
    25   13   31 1
    26   14   15 1
    27   14   32 1
    28   14   33 1
    29   15   34 1
    30   16   35 1
    31   17   18 2
    32   17   19 1
    33   18   36 1
    34   18   37 1
    35   19   20 2
    36   19   21 1
    37   22   38 1
    38   23   24 2
    39   23   39 1
    40   24   40 1
    41   24   41 1
@<TRIPOS>MOLECULE
ZINC37930984
   28    29     0     0     0
SMALL
USER_CHARGES

@<TRIPOS>ATOM
      1 C1         -0.4932    1.4699   -0.4428 C.3       1 <0>         0.1150
      2 N1         -0.4634    0.0055   -0.4107 N.pl3     1 <0>        -0.3831
      3 C2          0.2382   -0.7989   -1.2519 C.2       1 <0>        -0.0313
      4 C3         -0.0040   -2.0838   -0.8866 C.2       1 <0>         0.0671
      5 C4         -0.8790   -2.0613    0.2094 C.2       1 <0>         0.0136
      6 N2         -1.1481   -0.8134    0.4961 N.2       1 <0>        -0.2862
      7 N3          0.5278   -3.2336   -1.4989 N.pl3     1 <0>        -0.6410
      8 C5          0.3963   -4.4721   -0.8835 C.ar      1 <0>         0.1713
      9 C6          0.3890   -4.5646    0.5033 C.ar      1 <0>        -0.1525
     10 C7          0.2586   -5.7932    1.1148 C.ar      1 <0>        -0.1646
     11 C8          0.1332   -6.9508    0.3510 C.ar      1 <0>         0.1540
     12 C9          0.1388   -6.8779   -1.0296 C.ar      1 <0>        -0.1226
     13 C10         0.2644   -5.6351   -1.6607 C.ar      1 <0>        -0.1413
     14 C11         0.2647   -5.5477   -3.1283 C.2       1 <0>         0.5256
     15 O1          0.2710   -6.5691   -3.8020 O.co2     1 <0>        -0.6875
     16 O2          0.2587   -4.4534   -3.6760 O.co2     1 <0>        -0.6856
     17 N4          0.0014   -8.1929    0.9835 N.pl3     1 <0>        -0.8913
     18 H1          0.3056    1.8634    0.1859 H         1 <0>         0.0659
     19 H2         -0.3519    1.8138   -1.4674 H         1 <0>         0.0821
     20 H3         -1.4553    1.8220   -0.0708 H         1 <0>         0.0821
     21 H4          0.8731   -0.4749   -2.0633 H         1 <0>         0.1704
     22 H5         -1.2621   -2.9264    0.7303 H         1 <0>         0.1845
     23 H6          0.9862   -3.1615   -2.3507 H         1 <0>         0.4223
     24 H7          0.4861   -3.6718    1.1032 H         1 <0>         0.1192
     25 H8          0.2540   -5.8584    2.1928 H         1 <0>         0.1102
     26 H9          0.0417   -7.7773   -1.6195 H         1 <0>         0.1236
     27 H10        -0.0025   -8.2461    1.9520 H         1 <0>         0.3881
     28 H11        -0.0861   -9.0004    0.4531 H         1 <0>         0.3919
@<TRIPOS>BOND
     1    1    2 1
     2    1   18 1
     3    1   19 1
     4    1   20 1
     5    2    6 1
     6    2    3 1
     7    3    4 2
     8    3   21 1
     9    4    5 1
    10    4    7 1
    11    5    6 2
    12    5   22 1
    13    7    8 1
    14    7   23 1
    15    8   13 ar
    16    8    9 ar
    17    9   10 ar
    18    9   24 1
    19   10   11 ar
    20   10   25 1
    21   11   12 ar
    22   11   17 1
    23   12   13 ar
    24   12   26 1
    25   13   14 1
    26   14   15 2
    27   14   16 1
    28   17   27 1
    29   17   28 1
@<TRIPOS>MOLECULE
ZINC52094758
   28    29     0     0     0
SMALL
USER_CHARGES

@<TRIPOS>ATOM
      1 C1         -0.0167    1.3820    0.0096 C.ar      1 <0>        -0.0937
      2 C2          1.1718    2.0860    0.0021 C.ar      1 <0>        -0.0620
      3 C3          2.3819    1.4129   -0.0131 C.ar      1 <0>        -0.0770
      4 C4          2.4102    0.0309   -0.0208 C.ar      1 <0>        -0.0709
      5 C5          1.2223   -0.6834   -0.0133 C.ar      1 <0>         0.0849
      6 C6          0.0021   -0.0041    0.0020 C.ar      1 <0>         0.1094
      7 N1         -0.9983   -0.9738    0.0064 N.am      1 <0>        -0.6391
      8 H1         -1.9533   -0.8041    0.0164 H         1 <0>         0.4375
      9 C7         -0.4135   -2.1864   -0.0057 C.2       1 <0>         0.6868
     10 O1         -1.0053   -3.2497   -0.0054 O.2       1 <0>        -0.5568
     11 N2          0.9252   -2.0442   -0.0178 N.am      1 <0>        -0.6387
     12 H2          1.5727   -2.7665   -0.0283 H         1 <0>         0.4363
     13 Br1         4.0019    2.3881   -0.0240 Br        1 <0>        -0.0250
     14 C8          1.1514    3.5929    0.0099 C.3       1 <0>         0.1357
     15 H3          1.9936    3.9646    0.5933 H         1 <0>         0.1173
     16 C9          1.2567    4.1118   -1.4256 C.3       1 <0>        -0.1152
     17 C10         1.3615    5.6381   -1.4098 C.3       1 <0>        -0.1771
     18 C11         1.4653    6.1492   -2.8236 C.2       1 <0>         0.4888
     19 O2          1.4563    5.3653   -3.7574 O.co2     1 <0>        -0.7002
     20 O3          1.5583    7.3466   -3.0337 O.co2     1 <0>        -0.7070
     21 O4         -0.0706    4.0497    0.5930 O.3       1 <0>        -0.5501
     22 H4         -0.9585    1.9103    0.0260 H         1 <0>         0.1420
     23 H5          3.3556   -0.4910   -0.0330 H         1 <0>         0.1432
     24 H6          2.1437    3.6916   -1.8997 H         1 <0>         0.0761
     25 H7          0.3701    3.8143   -1.9855 H         1 <0>         0.0648
     26 H8          0.4745    6.0583   -0.9357 H         1 <0>         0.0629
     27 H9          2.2482    5.9356   -0.8499 H         1 <0>         0.0571
     28 H10        -0.8640    3.7560    0.1245 H         1 <0>         0.3700
@<TRIPOS>BOND
     1    1    6 ar
     2    1    2 ar
     3    1   22 1
     4    2    3 ar
     5    2   14 1
     6    3    4 ar
     7    3   13 1
     8    4    5 ar
     9    4   23 1
    10    5   11 1
    11    5    6 ar
    12    6    7 1
    13    7    8 1
    14    7    9 am
    15    9   10 2
    16    9   11 am
    17   11   12 1
    18   14   15 1
    19   14   16 1
    20   14   21 1
    21   16   17 1
    22   16   24 1
    23   16   25 1
    24   17   18 1
    25   17   26 1
    26   17   27 1
    27   18   19 2
    28   18   20 1
    29   21   28 1
@<TRIPOS>MOLECULE
ZINC62790476
   39    40     0     0     0
SMALL
USER_CHARGES

@<TRIPOS>ATOM
      1 C1         -0.1065    1.5335    0.2314 C.3       1 <0>        -0.1533
      2 C2         -0.0917    0.0036    0.2209 C.3       1 <0>        -0.0873
      3 H1         -1.0968   -0.3708    0.4145 H         1 <0>         0.0616
      4 C3          0.3829   -0.4924   -1.1464 C.3       1 <0>        -0.1099
      5 C4          1.7938    0.0332   -1.4181 C.3       1 <0>        -0.1216
      6 C5          2.7451   -0.4750   -0.3329 C.3       1 <0>        -0.1035
      7 C6          2.2706    0.0210    1.0344 C.3       1 <0>         0.1033
      8 C7          0.8597   -0.5046    1.3061 C.3       1 <0>        -0.1176
      9 C8          3.2076   -0.4796    2.1033 C.2       1 <0>         0.4884
     10 O1          3.8079    0.3138    2.8081 O.co2     1 <0>        -0.6704
     11 O2          3.3654   -1.6779    2.2632 O.co2     1 <0>        -0.6888
     12 N1          2.2564    1.4859    1.0445 N.pl3     1 <0>        -0.6856
     13 C9          1.8457    2.1697    2.1842 C.ar      1 <0>         0.3025
     14 C10         1.5594    1.4665    3.3508 C.ar      1 <0>        -0.1545
     15 C11         1.1530    2.1398    4.4801 C.ar      1 <0>        -0.0164
     16 C12         1.0280    3.5319    4.4556 C.ar      1 <0>        -0.2181
     17 C13         1.3165    4.2363    3.2831 C.ar      1 <0>        -0.0309
     18 C14         1.7275    3.5574    2.1575 C.ar      1 <0>        -0.1438
     19 Cl1         2.0920    4.4311    0.7023 Cl        1 <0>        -0.0887
     20 C15         0.5920    4.2562    5.6645 C.2       1 <0>         0.5758
     21 O3          0.3410    3.6423    6.6837 O.2       1 <0>        -0.5542
     22 N2          0.4720    5.5984    5.6394 N.am      1 <0>        -0.8599
     23 H2          0.8382    1.9088   -0.1619 H         1 <0>         0.0746
     24 H3         -0.9271    1.8932   -0.3895 H         1 <0>         0.0342
     25 H4         -0.2414    1.8886    1.2531 H         1 <0>         0.0532
     26 H5          0.3935   -1.5823   -1.1539 H         1 <0>         0.0606
     27 H6         -0.2949   -0.1303   -1.9195 H         1 <0>         0.0547
     28 H7          2.1319   -0.3202   -2.3923 H         1 <0>         0.0581
     29 H8          1.7832    1.1231   -1.4106 H         1 <0>         0.0594
     30 H9          2.7558   -1.5649   -0.3404 H         1 <0>         0.0827
     31 H10         3.7503   -0.1005   -0.5265 H         1 <0>         0.0592
     32 H11         0.5216   -0.1512    2.2802 H         1 <0>         0.0701
     33 H12         0.8703   -1.5945    1.2986 H         1 <0>         0.0753
     34 H13         2.5332    1.9791    0.2564 H         1 <0>         0.3939
     35 H14         1.6560    0.3909    3.3696 H         1 <0>         0.1466
     36 H15         0.9304    1.5931    5.3845 H         1 <0>         0.1309
     37 H16         1.2209    5.3118    3.2610 H         1 <0>         0.1234
     38 H17         0.6723    6.0881    4.8264 H         1 <0>         0.3979
     39 H18         0.1853    6.0747    6.4343 H         1 <0>         0.3984
@<TRIPOS>BOND
     1    1    2 1
     2    1   23 1
     3    1   24 1
     4    1   25 1
     5    2    3 1
     6    2    8 1
     7    2    4 1
     8    4    5 1
     9    4   26 1
    10    4   27 1
    11    5    6 1
    12    5   28 1
    13    5   29 1
    14    6    7 1
    15    6   30 1
    16    6   31 1
    17    7    8 1
    18    7    9 1
    19    7   12 1
    20    8   32 1
    21    8   33 1
    22    9   10 2
    23    9   11 1
    24   12   13 1
    25   12   34 1
    26   13   18 ar
    27   13   14 ar
    28   14   15 ar
    29   14   35 1
    30   15   16 ar
    31   15   36 1
    32   16   17 ar
    33   16   20 1
    34   17   18 ar
    35   17   37 1
    36   18   19 1
    37   20   21 2
    38   20   22 am
    39   22   38 1
    40   22   39 1
@<TRIPOS>MOLECULE
ZINC04772283
   24    24     0     0     0
SMALL
USER_CHARGES
4-[(5-iodo-2-furyl)methylene]-3-methyl-pent-2-enedioic acid
@<TRIPOS>ATOM
      1 C1         -4.0066    1.7937    0.2067 C.3       1 <0>        -0.0821
      2 C2         -2.5917    1.2815    0.1250 C.2       1 <0>        -0.0987
      3 C3         -2.3391   -0.0427    0.2838 C.2       1 <0>        -0.1172
      4 C4         -3.4074   -0.9492    0.4595 C.2       1 <0>         0.4745
      5 O1         -4.5571   -0.5584    0.3759 O.co2     1 <0>        -0.6331
      6 C5         -1.5242    2.1828   -0.1178 C.2       1 <0>         0.0005
      7 C6         -1.7917    3.5203   -0.3907 C.2       1 <0>        -0.1914
      8 C7         -0.7458    4.3874   -0.7435 C.2       1 <0>         0.1144
      9 C8         -0.8490    5.7568   -0.9397 C.2       1 <0>        -0.2556
     10 C9          0.4317    6.2079   -1.2742 C.2       1 <0>        -0.1524
     11 C10         1.2525    5.1285   -1.2713 C.2       1 <0>        -0.0693
     12 O2          0.5435    4.0394   -0.9473 O.3       1 <0>        -0.1119
     13 I1          3.3033    5.1605   -1.6980 I         1 <0>         0.0355
     14 C11        -0.1366    1.7043   -0.0810 C.2       1 <0>         0.4962
     15 O3          0.3214    1.0941   -1.0279 O.co2     1 <0>        -0.6234
     16 H1         -4.0065    2.8790    0.1050 H         1 <0>         0.0353
     17 H2         -4.5992    1.3537   -0.5953 H         1 <0>         0.0750
     18 H3         -4.4374    1.5191    1.1695 H         1 <0>         0.0676
     19 H4         -1.3210   -0.4029    0.2757 H         1 <0>         0.1137
     20 H5         -2.8042    3.8916   -0.3312 H         1 <0>         0.1488
     21 H6         -1.7427    6.3568   -0.8511 H         1 <0>         0.1479
     22 H7          0.7146    7.2267   -1.4943 H         1 <0>         0.1438
     23 O4         -3.1536   -2.2492    0.7202 O.co2     1 <0>        -0.7713
     24 O5          0.6283    1.9367    1.0051 O.co2     1 <0>        -0.7468
@<TRIPOS>BOND
     1    1    2 1
     2    1   16 1
     3    1   17 1
     4    1   18 1
     5    2    3 2
     6    2    6 1
     7    3    4 1
     8    3   19 1
     9    4    5 2
    10    4   23 1
    11    6    7 2
    12    6   14 1
    13    7    8 1
    14    7   20 1
    15    8   12 1
    16    8    9 2
    17    9   10 1
    18    9   21 1
    19   10   11 2
    20   10   22 1
    21   11   12 1
    22   11   13 1
    23   14   15 2
    24   14   24 1
@<TRIPOS>MOLECULE
ZINC01718231
   25    26     0     0     0
SMALL
USER_CHARGES
6-methoxyquinoline-2,4-dicarboxylic acid
@<TRIPOS>ATOM
      1 C1         -0.0555    1.0236    0.0086 C.3       1 <0>         0.0310
      2 O1         -0.7161    1.4965    1.1842 O.3       1 <0>        -0.3180
      3 C2         -0.1752    1.1449    2.3787 C.ar      1 <0>         0.0807
      4 C3          0.9779    0.3539    2.4033 C.ar      1 <0>        -0.1879
      5 C4          1.5582   -0.0241    3.5713 C.ar      1 <0>        -0.0609
      6 C5          0.9930    0.3847    4.7965 C.ar      1 <0>         0.0791
      7 C6         -0.2151    1.2130    4.7731 C.ar      1 <0>        -0.0517
      8 C7         -0.7698    1.5793    3.5442 C.ar      1 <0>        -0.1158
      9 C8         -0.7820    1.6242    6.0066 C.ar      1 <0>        -0.0895
     10 C9         -0.1522    1.2128    7.1742 C.ar      1 <0>        -0.0859
     11 C10         1.0005    0.4204    7.1079 C.ar      1 <0>         0.1058
     12 N1          1.5296    0.0373    5.9618 N.ar      1 <0>        -0.4256
     13 C11         1.6493   -0.0022    8.3699 C.2       1 <0>         0.5064
     14 O2          1.1806    0.3381    9.4372 O.co2     1 <0>        -0.6245
     15 C12        -1.9985    2.4604    6.0479 C.2       1 <0>         0.5019
     16 O3         -2.4724    2.8945    5.0171 O.co2     1 <0>        -0.6262
     17 H1         -0.0403   -0.0663    0.0138 H         1 <0>         0.0479
     18 H2          0.9669    1.4011   -0.0104 H         1 <0>         0.0479
     19 H3         -0.5891    1.3753   -0.8744 H         1 <0>         0.0888
     20 H4          1.4181    0.0358    1.4698 H         1 <0>         0.1205
     21 H5          2.4489   -0.6347    3.5618 H         1 <0>         0.1308
     22 H6         -1.6575    2.1933    3.5077 H         1 <0>         0.1777
     23 H7         -0.5517    1.5046    8.1342 H         1 <0>         0.1509
     24 O4          2.7593   -0.7642    8.3341 O.co2     1 <0>        -0.7402
     25 O5         -2.5826    2.7419    7.2289 O.co2     1 <0>        -0.7434
@<TRIPOS>BOND
     1    1    2 1
     2    1   17 1
     3    1   18 1
     4    1   19 1
     5    2    3 1
     6    3    8 ar
     7    3    4 ar
     8    4    5 ar
     9    4   20 1
    10    5    6 ar
    11    5   21 1
    12    6   12 ar
    13    6    7 ar
    14    7    8 ar
    15    7    9 ar
    16    8   22 1
    17    9   10 ar
    18    9   15 1
    19   10   11 ar
    20   10   23 1
    21   11   12 ar
    22   11   13 1
    23   13   14 2
    24   13   24 1
    25   15   16 2
    26   15   25 1
@<TRIPOS>MOLECULE
ZINC35047360
   24    25     0     0     0
SMALL
USER_CHARGES

@<TRIPOS>ATOM
      1 C1         -0.0187    1.5298    0.0105 C.3       1 <0>        -0.1141
      2 C2          1.4160    2.0620   -0.0004 C.3       1 <0>        -0.1122
      3 C3          2.4003    0.8855   -0.0161 C.3       1 <0>         0.1016
      4 C4          2.1721    0.0487    1.2503 C.3       1 <0>        -0.1399
      5 H1          2.3354    0.6704    2.1306 H         1 <0>         0.0637
      6 C5          0.7375   -0.4834    1.2611 C.3       1 <0>        -0.1414
      7 H2          0.2200   -0.1143    2.1465 H         1 <0>         0.0636
      8 C6          0.0021   -0.0041    0.0020 C.3       1 <0>         0.1082
      9 C7          0.8122   -0.4528   -1.2053 C.2       1 <0>        -0.0284
     10 C8          2.0629    0.0112   -1.2147 C.2       1 <0>        -0.0188
     11 Cl1         3.1989   -0.3481   -2.4773 Cl        1 <0>        -0.0527
     12 Cl2         0.1688   -1.4727   -2.4541 Cl        1 <0>        -0.0490
     13 Cl3        -1.6743   -0.6658   -0.0500 Cl        1 <0>        -0.1532
     14 C9          0.7612   -1.9901    1.2851 C.2       1 <0>         0.5110
     15 O1          1.3001   -2.5766    2.2081 O.co2     1 <0>        -0.6709
     16 O2          0.2414   -2.6224    0.3815 O.co2     1 <0>        -0.6774
     17 C10         3.1367   -1.1090    1.2675 C.2       1 <0>         0.5312
     18 O3          3.6682   -1.4442    2.3123 O.co2     1 <0>        -0.6932
     19 O4          3.3856   -1.7105    0.2365 O.co2     1 <0>        -0.6734
     20 Cl4         4.1009    1.4764   -0.1141 Cl        1 <0>        -0.1653
     21 H3         -0.5294    1.8810    0.9071 H         1 <0>         0.0805
     22 H4         -0.5464    1.8905   -0.8724 H         1 <0>         0.0743
     23 H5          1.5690    2.6752   -0.8884 H         1 <0>         0.0745
     24 H6          1.5859    2.6657    0.8911 H         1 <0>         0.0814
@<TRIPOS>BOND
     1    1    8 1
     2    1    2 1
     3    1   21 1
     4    1   22 1
     5    2    3 1
     6    2   23 1
     7    2   24 1
     8    3   10 1
     9    3    4 1
    10    3   20 1
    11    4    5 1
    12    4    6 1
    13    4   17 1
    14    6    7 1
    15    6    8 1
    16    6   14 1
    17    8    9 1
    18    8   13 1
    19    9   10 2
    20    9   12 1
    21   10   11 1
    22   14   15 2
    23   14   16 1
    24   17   18 2
    25   17   19 1
@<TRIPOS>MOLECULE
ZINC13275942
   39    42     0     0     0
SMALL
USER_CHARGES

@<TRIPOS>ATOM
      1 C1         -0.8462    1.2488   -0.9363 C.ar      1 <0>        -0.1177
      2 C2          0.1426    2.1984   -0.7797 C.ar      1 <0>        -0.1180
      3 C3          1.4517    1.8030   -0.4928 C.ar      1 <0>        -0.1118
      4 C4          1.7534    0.4456   -0.3656 C.ar      1 <0>        -0.1214
      5 C5          0.7521   -0.4996   -0.5250 C.ar      1 <0>         0.1632
      6 C6         -0.5473   -0.0948   -0.8104 C.ar      1 <0>        -0.1628
      7 N1          1.0486   -1.8598   -0.3988 N.am      1 <0>        -0.5460
      8 C7          0.0974   -2.9675   -0.5461 C.3       1 <0>         0.2648
      9 H1         -0.6946   -2.8828    0.1981 H         1 <0>         0.0725
     10 C8          0.8879   -4.2353   -0.3212 C.2       1 <0>        -0.4833
     11 C9          2.1669   -3.8590   -0.0710 C.2       1 <0>         0.2936
     12 C10         2.2573   -2.3840   -0.1267 C.2       1 <0>         0.4946
     13 O1          3.2726   -1.7405    0.0499 O.2       1 <0>        -0.4953
     14 O2          3.1954   -4.6983    0.1836 O.3       1 <0>        -0.6007
     15 C11         0.3904   -5.5588   -0.3634 C.2       1 <0>         0.4507
     16 O3          1.1538   -6.4975   -0.2665 O.2       1 <0>        -0.5123
     17 C12        -1.0874   -5.8034   -0.5286 C.3       1 <0>        -0.1946
     18 C13        -1.7222   -6.9002    0.3288 C.3       1 <0>        -0.1640
     19 C14        -1.5175   -7.1238   -1.1708 C.3       1 <0>        -0.1622
     20 C15        -0.4928   -2.9626   -1.9327 C.2       1 <0>        -0.1169
     21 C16        -1.8593   -3.0652   -2.1138 C.2       1 <0>        -0.1337
     22 C17        -2.3577   -3.0577   -3.3743 C.2       1 <0>        -0.1887
     23 S1         -0.8752   -2.9021   -4.3567 S.3       1 <0>         0.0019
     24 C18         0.3080   -2.8519   -3.0207 C.2       1 <0>        -0.1260
     25 C19         2.5114    2.8160   -0.3253 C.2       1 <0>         0.5222
     26 O4          2.2447    4.0042   -0.4375 O.co2     1 <0>        -0.6975
     27 O5          3.6564    2.4673   -0.0742 O.co2     1 <0>        -0.6808
     28 H2         -1.8583    1.5567   -1.1536 H         1 <0>         0.1115
     29 H3         -0.0951    3.2472   -0.8793 H         1 <0>         0.1206
     30 H4          2.7633    0.1333   -0.1443 H         1 <0>         0.1569
     31 H5         -1.3258   -0.8331   -0.9342 H         1 <0>         0.1159
     32 H6         -1.6891   -4.9201   -0.7427 H         1 <0>         0.1131
     33 H7         -1.0709   -7.4448    1.0124 H         1 <0>         0.0943
     34 H8         -2.7416   -6.7385    0.6791 H         1 <0>         0.0888
     35 H9         -2.4023   -7.1093   -1.8072 H         1 <0>         0.0876
     36 H10        -0.7316   -7.8156   -1.4739 H         1 <0>         0.0960
     37 H11        -2.5200   -3.1504   -1.2637 H         1 <0>         0.1304
     38 H12        -3.3851   -3.1281   -3.6998 H         1 <0>         0.1786
     39 H13         1.3830   -2.7587   -3.0673 H         1 <0>         0.1766
@<TRIPOS>BOND
     1    1    6 ar
     2    1    2 ar
     3    1   28 1
     4    2    3 ar
     5    2   29 1
     6    3    4 ar
     7    3   25 1
     8    4    5 ar
     9    4   30 1
    10    5    6 ar
    11    5    7 1
    12    6   31 1
    13    7   12 am
    14    7    8 1
    15    8    9 1
    16    8   10 1
    17    8   20 1
    18   10   11 2
    19   10   15 1
    20   11   12 1
    21   11   14 1
    22   12   13 2
    23   15   16 2
    24   15   17 1
    25   17   19 1
    26   17   18 1
    27   17   32 1
    28   18   19 1
    29   18   33 1
    30   18   34 1
    31   19   35 1
    32   19   36 1
    33   20   24 2
    34   20   21 1
    35   21   22 2
    36   21   37 1
    37   22   23 1
    38   22   38 1
    39   23   24 1
    40   24   39 1
    41   25   26 2
    42   25   27 1
@<TRIPOS>MOLECULE
ZINC47383475
   33    34     0     0     0
SMALL
USER_CHARGES

@<TRIPOS>ATOM
      1 C1         -0.0184    1.5028    0.0103 C.3       1 <0>        -0.2000
      2 C2          0.0021   -0.0041    0.0020 C.2       1 <0>         0.3985
      3 O1          0.0203   -0.6159    1.0487 O.2       1 <0>        -0.4640
      4 C3         -0.0001   -0.7330   -1.2765 C.ar      1 <0>        -0.1514
      5 C4         -0.0153   -0.0308   -2.4858 C.ar      1 <0>        -0.1000
      6 C5         -0.0168   -0.7210   -3.6795 C.ar      1 <0>        -0.0400
      7 C6         -0.0033   -2.1050   -3.6829 C.ar      1 <0>        -0.5828
      8 C7          0.0113   -2.8071   -2.4903 C.ar      1 <0>        -0.0385
      9 C8          0.0188   -2.1313   -1.2883 C.ar      1 <0>        -0.0865
     10 S1         -0.0053   -2.9777   -5.2136 S.o2      1 <0>         2.6005
     11 O2         -0.5418   -4.2660   -4.9459 O.2       1 <0>        -1.0266
     12 O3         -0.5713   -2.1024   -6.1794 O.2       1 <0>        -1.0270
     13 N1          1.5760   -3.2047   -5.6498 N.2       1 <0>        -1.0865
     14 C9          1.8847   -3.8779   -6.8381 C.ar      1 <0>         0.2298
     15 C10         3.2056   -4.0721   -7.1988 C.ar      1 <0>        -0.0895
     16 C11         3.5103   -4.7451   -8.3867 C.ar      1 <0>        -0.1417
     17 C12         2.4749   -5.2178   -9.2026 C.ar      1 <0>         0.0576
     18 C13         1.1588   -5.0179   -8.8318 C.ar      1 <0>        -0.1560
     19 C14         0.8607   -4.3566   -7.6530 C.ar      1 <0>        -0.0481
     20 F1         -0.4282   -4.1698   -7.2937 F         1 <0>        -0.1443
     21 F2          2.7624   -5.8682  -10.3514 F         1 <0>        -0.1372
     22 C15         4.9138   -4.9553   -8.7777 C.2       1 <0>         0.5275
     23 O4          5.8164   -4.5410   -8.0633 O.co2     1 <0>        -0.6925
     24 O5          5.1776   -5.5442   -9.8170 O.co2     1 <0>        -0.6875
     25 H1          1.0042    1.8801    0.0026 H         1 <0>         0.0984
     26 H2         -0.5455    1.8639   -0.8728 H         1 <0>         0.0883
     27 H3         -0.5286    1.8543    0.9071 H         1 <0>         0.0848
     28 H4         -0.0262    1.0491   -2.4848 H         1 <0>         0.1348
     29 H5         -0.0288   -0.1802   -4.6143 H         1 <0>         0.1438
     30 H6          0.0214   -3.8870   -2.5011 H         1 <0>         0.1436
     31 H7          0.0347   -2.6805   -0.3585 H         1 <0>         0.1347
     32 H8          3.9995   -3.7049   -6.5655 H         1 <0>         0.1374
     33 H9          0.3606   -5.3822   -9.4615 H         1 <0>         0.1203
@<TRIPOS>BOND
     1    1    2 1
     2    1   25 1
     3    1   26 1
     4    1   27 1
     5    2    3 2
     6    2    4 1
     7    4    9 ar
     8    4    5 ar
     9    5    6 ar
    10    5   28 1
    11    6    7 ar
    12    6   29 1
    13    7    8 ar
    14    7   10 1
    15    8    9 ar
    16    8   30 1
    17    9   31 1
    18   10   11 2
    19   10   12 2
    20   10   13 1
    21   13   14 1
    22   14   19 ar
    23   14   15 ar
    24   15   16 ar
    25   15   32 1
    26   16   17 ar
    27   16   22 1
    28   17   18 ar
    29   17   21 1
    30   18   19 ar
    31   18   33 1
    32   19   20 1
    33   22   23 2
    34   22   24 1
@<TRIPOS>MOLECULE
ZINC06184386
   43    43     0     0     0
SMALL
USER_CHARGES
5-[(5-carbamoyl-3-isopropoxycarbonyl-4-methyl-2-thienyl)amino]-5-oxo-pentanoic acid
@<TRIPOS>ATOM
      1 C1         -4.0029    2.8367    0.0378 C.3       1 <0>        -0.1138
      2 C2         -3.7263    1.3554    0.0271 C.2       1 <0>         0.0299
      3 C3         -4.7612    0.4320    0.0262 C.2       1 <0>        -0.2377
      4 C4         -4.4223   -0.9252    0.0165 C.2       1 <0>         0.1195
      5 S1         -2.6894   -0.8915    0.0021 S.3       1 <0>         0.2949
      6 C5         -2.4454    0.8744    0.0184 C.2       1 <0>        -0.3150
      7 C6         -1.1873    1.6238    0.0165 C.2       1 <0>         0.6194
      8 O1         -1.2038    2.8409    0.0232 O.2       1 <0>        -0.5335
      9 N1         -0.0111    0.9658    0.0074 N.am      1 <0>        -0.8494
     10 N2         -5.2618   -2.0220    0.0137 N.am      1 <0>        -0.6208
     11 C7         -4.7446   -3.2665    0.0039 C.2       1 <0>         0.5084
     12 O2         -3.5422   -3.4234   -0.0025 O.2       1 <0>        -0.4802
     13 C8         -5.6607   -4.4632    0.0008 C.3       1 <0>        -0.1347
     14 C9         -4.8252   -5.7449   -0.0107 C.3       1 <0>        -0.0859
     15 C10        -5.7552   -6.9598   -0.0138 C.3       1 <0>        -0.1587
     16 C11        -4.9324   -8.2223   -0.0251 C.2       1 <0>         0.4579
     17 O3         -3.7259   -8.1570   -0.0302 O.co2     1 <0>        -0.6374
     18 C12        -6.1633    0.8639    0.0356 C.2       1 <0>         0.5366
     19 O4         -6.7494    1.0495   -1.0135 O.2       1 <0>        -0.4916
     20 O5         -6.8021    1.0549    1.2077 O.3       1 <0>        -0.3440
     21 C13        -8.1882    1.4822    1.1410 C.3       1 <0>         0.0758
     22 C14        -9.0997    0.2537    1.1109 C.3       1 <0>        -0.1725
     23 C15        -8.5193    2.3330    2.3688 C.3       1 <0>        -0.1500
     24 H1         -4.0746    3.2003   -0.9873 H         1 <0>         0.0804
     25 H2         -4.9420    3.0272    0.5573 H         1 <0>         0.0601
     26 H3         -3.1923    3.3540    0.5510 H         1 <0>         0.0993
     27 H4          0.0021   -0.0041    0.0020 H         1 <0>         0.4016
     28 H5          0.8223    1.4622    0.0021 H         1 <0>         0.4091
     29 H6         -6.2237   -1.8965    0.0188 H         1 <0>         0.4223
     30 H7         -6.2855   -4.4447    0.8938 H         1 <0>         0.1022
     31 H8         -6.2936   -4.4340   -0.8861 H         1 <0>         0.1021
     32 H9         -4.2004   -5.7633   -0.9036 H         1 <0>         0.0724
     33 H10        -4.1923   -5.7741    0.8763 H         1 <0>         0.0726
     34 H11        -6.3800   -6.9414    0.8792 H         1 <0>         0.0649
     35 H12        -6.3881   -6.9306   -0.9007 H         1 <0>         0.0649
     36 H13        -8.3435    2.0721    0.2376 H         1 <0>         0.0863
     37 H14        -8.8638   -0.3523    0.2362 H         1 <0>         0.0610
     38 H15        -8.9444   -0.3361    2.0142 H         1 <0>         0.0688
     39 H16       -10.1402    0.5745    1.0608 H         1 <0>         0.0776
     40 H17        -7.8699    3.2082    2.3902 H         1 <0>         0.0652
     41 H18        -9.5598    2.6537    2.3187 H         1 <0>         0.0792
     42 H19        -8.3639    1.7431    3.2721 H         1 <0>         0.0690
     43 O6         -5.5398   -9.4193   -0.0295 O.co2     1 <0>        -0.7764
@<TRIPOS>BOND
     1    1    2 1
     2    1   24 1
     3    1   25 1
     4    1   26 1
     5    2    6 2
     6    2    3 1
     7    3    4 2
     8    3   18 1
     9    4    5 1
    10    4   10 1
    11    5    6 1
    12    6    7 1
    13    7    8 2
    14    7    9 am
    15    9   27 1
    16    9   28 1
    17   10   11 am
    18   10   29 1
    19   11   12 2
    20   11   13 1
    21   13   14 1
    22   13   30 1
    23   13   31 1
    24   14   15 1
    25   14   32 1
    26   14   33 1
    27   15   16 1
    28   15   34 1
    29   15   35 1
    30   16   17 2
    31   16   43 1
    32   18   19 2
    33   18   20 1
    34   20   21 1
    35   21   22 1
    36   21   23 1
    37   21   36 1
    38   22   37 1
    39   22   38 1
    40   22   39 1
    41   23   40 1
    42   23   41 1
    43   23   42 1
@<TRIPOS>MOLECULE
ZINC13236814
   55    58     0     0     0
SMALL
USER_CHARGES
(2S)-2-[[2-[[(4S)-chroman-4-yl]amino]-2-oxo-ethyl]carbamoylamino]-3-(1H-indol-3-yl)propanoic acid
@<TRIPOS>ATOM
      1 C1          4.8819    5.5543   -2.8197 C.ar      1 <0>        -0.1488
      2 C2          4.9086    5.4202   -4.2013 C.ar      1 <0>        -0.1038
      3 C3          5.8245    4.5900   -4.8091 C.ar      1 <0>        -0.1338
      4 C4          6.7331    3.8777   -4.0328 C.ar      1 <0>         0.0935
      5 C5          6.7019    4.0170   -2.6334 C.ar      1 <0>        -0.0930
      6 C6          5.7647    4.8638   -2.0383 C.ar      1 <0>        -0.0677
      7 C7          7.7651    3.1519   -2.1167 C.2       1 <0>        -0.1493
      8 C8          8.3509    2.5739   -3.1773 C.2       1 <0>         0.0448
      9 N1          7.7440    2.9915   -4.3304 N.pl3     1 <0>        -0.5980
     10 H1          7.9914    2.7081   -5.2244 H         1 <0>         0.4118
     11 C9          8.1353    2.9534   -0.6694 C.3       1 <0>        -0.0402
     12 C10         7.2391    1.8752   -0.0570 C.3       1 <0>         0.1293
     13 H2          7.3078    0.9645   -0.6520 H         1 <0>         0.0873
     14 C11         7.6887    1.5893    1.3527 C.2       1 <0>         0.4574
     15 O1          6.9281    1.7602    2.2758 O.co2     1 <0>        -0.6273
     16 N2          5.8514    2.3447   -0.0412 N.am      1 <0>        -0.7058
     17 C12         4.8390    1.4550   -0.0363 C.2       1 <0>         0.7157
     18 O2          5.0774    0.2628   -0.0450 O.2       1 <0>        -0.5966
     19 N3          3.5624    1.8869   -0.0218 N.am      1 <0>        -0.7425
     20 C13         2.4620    0.9199   -0.0165 C.3       1 <0>         0.1251
     21 C14         1.1468    1.6555   -0.0000 C.2       1 <0>         0.5137
     22 O3          1.1304    2.8682    0.0067 O.2       1 <0>        -0.5279
     23 N4         -0.0111    0.9658    0.0074 N.am      1 <0>        -0.7202
     24 C15        -1.2896    1.6810    0.0173 C.3       1 <0>         0.1928
     25 H3         -1.1974    2.5969   -0.5665 H         1 <0>         0.1024
     26 C16        -2.3746    0.7933   -0.5974 C.3       1 <0>        -0.1673
     27 C17        -3.7396    1.4323   -0.3107 C.3       1 <0>         0.0668
     28 O4         -3.9543    1.4205    1.1013 O.3       1 <0>        -0.3169
     29 C18        -2.9575    1.8848    1.8988 C.ar      1 <0>         0.1358
     30 C19        -1.6602    2.0264    1.4373 C.ar      1 <0>        -0.1789
     31 C20        -0.6736    2.4946    2.2885 C.ar      1 <0>        -0.0665
     32 C21        -0.9785    2.8235    3.5952 C.ar      1 <0>        -0.1529
     33 C22        -2.2738    2.6860    4.0581 C.ar      1 <0>        -0.0817
     34 C23        -3.2612    2.2190    3.2145 C.ar      1 <0>        -0.1557
     35 H4          4.1571    6.2091   -2.3589 H         1 <0>         0.1195
     36 H5          4.2038    5.9721   -4.8056 H         1 <0>         0.1194
     37 H6          5.8370    4.4922   -5.8845 H         1 <0>         0.1139
     38 H7          5.7379    4.9729   -0.9642 H         1 <0>         0.1173
     39 H8          9.1774    1.8805   -3.1276 H         1 <0>         0.1712
     40 H9          7.9993    3.8896   -0.1279 H         1 <0>         0.0685
     41 H10         9.1775    2.6418   -0.6004 H         1 <0>         0.0963
     42 H11         5.6612    3.2958   -0.0343 H         1 <0>         0.3858
     43 H12         3.3723    2.8381   -0.0149 H         1 <0>         0.4026
     44 H13         2.5367    0.2893    0.8694 H         1 <0>         0.0968
     45 H14         2.5197    0.2988   -0.9104 H         1 <0>         0.0940
     46 H15         0.0021   -0.0041    0.0020 H         1 <0>         0.4060
     47 H16        -2.2224    0.7193   -1.6741 H         1 <0>         0.0934
     48 H17        -2.3330   -0.2002   -0.1508 H         1 <0>         0.0859
     49 H18        -4.5240    0.8602   -0.8062 H         1 <0>         0.1130
     50 H19        -3.7488    2.4597   -0.6748 H         1 <0>         0.0680
     51 H20         0.3391    2.6029    1.9294 H         1 <0>         0.1332
     52 H21        -0.2050    3.1882    4.2549 H         1 <0>         0.1254
     53 H22        -2.5131    2.9443    5.0791 H         1 <0>         0.1282
     54 H23        -4.2730    2.1126    3.5770 H         1 <0>         0.1291
     55 O5          8.9342    1.1449    1.5827 O.co2     1 <0>        -0.7694
@<TRIPOS>BOND
     1    1    6 ar
     2    1    2 ar
     3    1   35 1
     4    2    3 ar
     5    2   36 1
     6    3    4 ar
     7    3   37 1
     8    4    9 1
     9    4    5 ar
    10    5    6 ar
    11    5    7 1
    12    6   38 1
    13    7    8 2
    14    7   11 1
    15    8    9 1
    16    8   39 1
    17    9   10 1
    18   11   12 1
    19   11   40 1
    20   11   41 1
    21   12   13 1
    22   12   14 1
    23   12   16 1
    24   14   15 2
    25   14   55 1
    26   16   17 am
    27   16   42 1
    28   17   18 2
    29   17   19 am
    30   19   20 1
    31   19   43 1
    32   20   21 1
    33   20   44 1
    34   20   45 1
    35   21   22 2
    36   21   23 am
    37   23   24 1
    38   23   46 1
    39   24   25 1
    40   24   30 1
    41   24   26 1
    42   26   27 1
    43   26   47 1
    44   26   48 1
    45   27   28 1
    46   27   49 1
    47   27   50 1
    48   28   29 1
    49   29   34 ar
    50   29   30 ar
    51   30   31 ar
    52   31   32 ar
    53   31   51 1
    54   32   33 ar
    55   32   52 1
    56   33   34 ar
    57   33   53 1
    58   34   54 1
@<TRIPOS>MOLECULE
ZINC31161925
   58    60     0     0     0
SMALL
USER_CHARGES
(2S,3R)-4-[2-[(1aR,6R,7R,7aR,7bR)-6-hydroxy-7,7a-dimethyl-2-oxo-5,6,7,7b-tetrahydro-4H-naphtho[1,2-b]oxiren-1a-yl]allyloxy]-2-acetamido-3-hydroxy-butanoic acid
@<TRIPOS>ATOM
      1 C1          3.2075   -2.5823    7.4419 C.3       1 <0>        -0.1565
      2 C2          2.8244   -1.4435    8.3892 C.3       1 <0>        -0.0702
      3 H1          1.7586   -1.4829    8.6586 H         1 <0>         0.0829
      4 C3          3.6320   -1.5771    9.6736 C.3       1 <0>         0.1227
      5 H2          4.7138   -1.5791    9.4743 H         1 <0>         0.0557
      6 C4          3.2198   -0.4450   10.6221 C.3       1 <0>        -0.1487
      7 C5          3.7458    0.8666   10.0463 C.3       1 <0>        -0.0870
      8 C6          3.3312    1.0303    8.6076 C.2       1 <0>        -0.0337
      9 C7          3.2467    2.2982    8.1514 C.2       1 <0>        -0.2354
     10 C8          2.8911    2.5243    6.7318 C.2       1 <0>         0.4201
     11 O1          3.4235    3.3689    6.0425 O.2       1 <0>        -0.4160
     12 C9          1.7971    1.6010    6.2031 C.3       1 <0>         0.0260
     13 C10         1.8771    0.1677    6.7643 C.3       1 <0>         0.0164
     14 H3          1.8151   -0.8582    6.3722 H         1 <0>         0.1736
     15 C11         3.0683   -0.1181    7.6894 C.3       1 <0>        -0.0475
     16 C12         4.3049   -0.3017    6.8073 C.3       1 <0>        -0.1535
     17 O2          0.8917    1.1013    7.1958 O.3       1 <0>        -0.2901
     18 C13         1.3145    1.8395    4.7955 C.2       1 <0>        -0.1189
     19 C14         0.2368    2.5537    4.5847 C.2       1 <0>        -0.1288
     20 C15         2.0718    1.2564    3.6303 C.3       1 <0>         0.1104
     21 O3          1.4222    1.6193    2.4104 O.3       1 <0>        -0.3837
     22 C16         2.0636    1.1140    1.2377 C.3       1 <0>         0.0620
     23 C17         1.2864    1.5618   -0.0018 C.3       1 <0>         0.1421
     24 H4          1.1154    2.6484    0.0058 H         1 <0>         0.0494
     25 C18         2.0397    1.1274   -1.2607 C.3       1 <0>         0.0683
     26 H5          3.0662    1.5227   -1.2631 H         1 <0>         0.0930
     27 C19         2.0721   -0.3775   -1.3325 C.2       1 <0>         0.4731
     28 O4          1.5776   -0.9481   -2.2759 O.co2     1 <0>        -0.6260
     29 O5          2.6503   -1.0841   -0.3486 O.co2     1 <0>        -0.7589
     30 N1          1.3594    1.6583   -2.4445 N.am      1 <0>        -0.7127
     31 C20         2.0486    1.8565   -3.5856 C.2       1 <0>         0.5136
     32 O6          3.2321    1.5954   -3.6324 O.2       1 <0>        -0.5557
     33 C21         1.3488    2.4026   -4.8034 C.3       1 <0>        -0.1698
     34 O7         -0.0110    0.9628    0.0073 O.3       1 <0>        -0.5739
     35 O8          3.3601   -2.8400   10.2843 O.3       1 <0>        -0.5960
     36 H6          3.0343   -3.5476    7.9401 H         1 <0>         0.0709
     37 H7          4.2705   -2.4939    7.1733 H         1 <0>         0.0691
     38 H8          2.5931   -2.5241    6.5313 H         1 <0>         0.0606
     39 H9          2.1230   -0.4131   10.7002 H         1 <0>         0.0761
     40 H10         3.6531   -0.6242   11.6171 H         1 <0>         0.0732
     41 H11         3.3433    1.7096   10.6271 H         1 <0>         0.0837
     42 H12         4.8445    0.8760   10.0997 H         1 <0>         0.0855
     43 H13         3.4406    3.1413    8.8309 H         1 <0>         0.1505
     44 H14         4.5206    0.6382    6.2781 H         1 <0>         0.0586
     45 H15         4.1173   -1.1004    6.0745 H         1 <0>         0.0850
     46 H16         5.1658   -0.5749    7.4351 H         1 <0>         0.0711
     47 H17        -0.1154    2.7278    3.5572 H         1 <0>         0.1301
     48 H18        -0.3160    2.9794    5.4351 H         1 <0>         0.0981
     49 H19         3.0999    1.6474    3.6286 H         1 <0>         0.0595
     50 H20         2.0965    0.1604    3.7206 H         1 <0>         0.0621
     51 H21         3.0916    1.5021    1.1860 H         1 <0>         0.0576
     52 H22         2.0882    0.0150    1.2779 H         1 <0>         0.1117
     53 H23         0.2860    1.8952   -2.4021 H         1 <0>         0.4039
     54 H24         2.0690    2.4946   -5.6297 H         1 <0>         0.0857
     55 H25         0.9283    3.3923   -4.5716 H         1 <0>         0.0808
     56 H26         0.5383    1.7196   -5.0977 H         1 <0>         0.0862
     57 H27        -0.7178    1.1692   -0.8099 H         1 <0>         0.3874
     58 H28         3.8569   -3.1134   11.2269 H         1 <0>         0.4061
@<TRIPOS>BOND
     1    1    2 1
     2    1   36 1
     3    1   37 1
     4    1   38 1
     5    2    3 1
     6    2   15 1
     7    2    4 1
     8    4    5 1
     9    4    6 1
    10    4   35 1
    11    6    7 1
    12    6   39 1
    13    6   40 1
    14    7    8 1
    15    7   41 1
    16    7   42 1
    17    8   15 1
    18    8    9 2
    19    9   10 1
    20    9   43 1
    21   10   11 2
    22   10   12 1
    23   12   17 1
    24   12   13 1
    25   12   18 1
    26   13   14 1
    27   13   15 1
    28   13   17 1
    29   15   16 1
    30   16   44 1
    31   16   45 1
    32   16   46 1
    33   18   19 2
    34   18   20 1
    35   19   47 1
    36   19   48 1
    37   20   21 1
    38   20   49 1
    39   20   50 1
    40   21   22 1
    41   22   23 1
    42   22   51 1
    43   22   52 1
    44   23   24 1
    45   23   25 1
    46   23   34 1
    47   25   26 1
    48   25   27 1
    49   25   30 1
    50   27   28 2
    51   27   29 1
    52   30   31 am
    53   30   53 1
    54   31   32 2
    55   31   33 1
    56   33   54 1
    57   33   55 1
    58   33   56 1
    59   34   57 1
    60   35   58 1
@<TRIPOS>MOLECULE
ZINC37586101
   47    46     0     0     0
SMALL
USER_CHARGES

@<TRIPOS>ATOM
      1 C1         -0.0187    1.5258    0.0104 C.3       1 <0>        -0.1519
      2 C2          0.0021   -0.0041    0.0020 C.3       1 <0>        -0.0897
      3 C3         -1.4333   -0.5336    0.0129 C.3       1 <0>        -0.1467
      4 C4          0.7182   -0.4975   -1.2568 C.3       1 <0>        -0.1342
      5 C5          2.1873   -0.0730   -1.2073 C.3       1 <0>         0.1541
      6 H1          2.2492    1.0061   -1.0668 H         1 <0>         0.1061
      7 C6          2.8632   -0.4509   -2.5001 C.2       1 <0>         0.4968
      8 O1          3.5443   -1.4528   -2.5581 O.2       1 <0>        -0.5015
      9 N1          2.7109    0.3245   -3.5919 N.am      1 <0>        -0.6060
     10 C7          3.3680   -0.0428   -4.8487 C.3       1 <0>         0.1148
     11 C8          2.4363   -0.9374   -5.6688 C.3       1 <0>        -0.1087
     12 C9          3.1226   -1.3210   -6.9814 C.3       1 <0>        -0.1804
     13 C10         2.2049   -2.2021   -7.7892 C.2       1 <0>         0.4900
     14 O2          1.1040   -2.4959   -7.3553 O.co2     1 <0>        -0.6972
     15 O3          2.5633   -2.6210   -8.8766 O.co2     1 <0>        -0.7101
     16 C11         1.8883    1.5347   -3.5218 C.3       1 <0>         0.1262
     17 C12         2.7466    2.7551   -3.8606 C.3       1 <0>        -0.1644
     18 C13         0.7367    1.4273   -4.5234 C.3       1 <0>        -0.1701
     19 N2          2.8538   -0.7497   -0.0918 N.am      1 <0>        -0.7337
     20 C14         2.9023   -2.0960   -0.0525 C.2       1 <0>         0.7069
     21 O4          2.3930   -2.7490   -0.9427 O.2       1 <0>        -0.5543
     22 N3          3.5155   -2.7185    0.9737 N.am      1 <0>        -0.8727
     23 H2          1.0039    1.9031    0.0027 H         1 <0>         0.0519
     24 H3         -0.5459    1.8868   -0.8726 H         1 <0>         0.0580
     25 H4         -0.5289    1.8773    0.9072 H         1 <0>         0.0541
     26 H5          0.5293   -0.3651    0.8851 H         1 <0>         0.0687
     27 H6         -1.9605   -0.1726   -0.8702 H         1 <0>         0.0563
     28 H7         -1.4185   -1.6235    0.0069 H         1 <0>         0.0553
     29 H8         -1.9435   -0.1821    0.9097 H         1 <0>         0.0520
     30 H9          0.6556   -1.5845   -1.3079 H         1 <0>         0.0978
     31 H10         0.2444   -0.0644   -2.1377 H         1 <0>         0.0779
     32 H11         3.5978    0.8593   -5.4157 H         1 <0>         0.0695
     33 H12         4.2909   -0.5809   -4.6324 H         1 <0>         0.0751
     34 H13         2.2066   -1.8394   -5.1017 H         1 <0>         0.0633
     35 H14         1.5134   -0.3992   -5.8851 H         1 <0>         0.0659
     36 H15         3.3523   -0.4189   -7.5484 H         1 <0>         0.0536
     37 H16         4.0455   -1.8591   -6.7651 H         1 <0>         0.0555
     38 H17         1.4852    1.6423   -2.5148 H         1 <0>         0.0873
     39 H18         3.1497    2.6476   -4.8676 H         1 <0>         0.0642
     40 H19         2.1346    3.6556   -3.8085 H         1 <0>         0.0666
     41 H20         3.5671    2.8317   -3.1471 H         1 <0>         0.0558
     42 H21         0.1252    0.5578   -4.2820 H         1 <0>         0.0645
     43 H22         0.1246    2.3277   -4.4713 H         1 <0>         0.0628
     44 H23         1.1398    1.3197   -5.5304 H         1 <0>         0.0718
     45 H24         3.2601   -0.2287    0.6184 H         1 <0>         0.3954
     46 H25         3.9218   -2.1975    1.6840 H         1 <0>         0.3904
     47 H26         3.5504   -3.6874    1.0021 H         1 <0>         0.4128
@<TRIPOS>BOND
     1    1    2 1
     2    1   23 1
     3    1   24 1
     4    1   25 1
     5    2    3 1
     6    2    4 1
     7    2   26 1
     8    3   27 1
     9    3   28 1
    10    3   29 1
    11    4    5 1
    12    4   30 1
    13    4   31 1
    14    5    6 1
    15    5    7 1
    16    5   19 1
    17    7    8 2
    18    7    9 am
    19    9   10 1
    20    9   16 1
    21   10   11 1
    22   10   32 1
    23   10   33 1
    24   11   12 1
    25   11   34 1
    26   11   35 1
    27   12   13 1
    28   12   36 1
    29   12   37 1
    30   13   14 2
    31   13   15 1
    32   16   17 1
    33   16   18 1
    34   16   38 1
    35   17   39 1
    36   17   40 1
    37   17   41 1
    38   18   42 1
    39   18   43 1
    40   18   44 1
    41   19   20 am
    42   19   45 1
    43   20   21 2
    44   20   22 am
    45   22   46 1
    46   22   47 1
@<TRIPOS>MOLECULE
ZINC13196561
   47    49     0     0     0
SMALL
USER_CHARGES

@<TRIPOS>ATOM
      1 C1          0.5279    0.9979   -0.2429 C.3       1 <0>         0.0277
      2 O1          0.4041   -0.4247   -0.1893 O.3       1 <0>        -0.3102
      3 C2         -0.8559   -0.9330   -0.1284 C.ar      1 <0>         0.0890
      4 C3         -1.9488   -0.0812   -0.1262 C.ar      1 <0>        -0.1713
      5 C4         -3.2289   -0.5995   -0.0647 C.ar      1 <0>        -0.1009
      6 C5         -3.4221   -1.9671   -0.0048 C.ar      1 <0>        -0.0803
      7 C6         -2.3361   -2.8224   -0.0062 C.ar      1 <0>        -0.1586
      8 C7         -1.0505   -2.3097   -0.0739 C.ar      1 <0>         0.1002
      9 O2          0.0188   -3.1500   -0.0814 O.3       1 <0>        -0.3097
     10 C8         -0.2566   -4.5510   -0.0233 C.3       1 <0>         0.0246
     11 C9         -4.8197   -2.5267    0.0626 C.3       1 <0>         0.2223
     12 H1         -4.8083   -3.5712   -0.2488 H         1 <0>         0.0931
     13 C10        -5.3399   -2.4282    1.4981 C.3       1 <0>        -0.1873
     14 C11        -6.6826   -3.1056    1.5935 C.2       1 <0>         0.4920
     15 O3         -7.1291   -3.7118    0.6344 O.co2     1 <0>        -0.6787
     16 O4         -7.3225   -3.0476    2.6296 O.co2     1 <0>        -0.7050
     17 N1         -5.6957   -1.7613   -0.8279 N.pl3     1 <0>        -1.0861
     18 S1         -5.9622   -2.2833   -2.3767 S.o2      1 <0>         2.7012
     19 O5         -6.8815   -1.3704   -2.9604 O.2       1 <0>        -0.9743
     20 O6         -4.6851   -2.5448   -2.9425 O.2       1 <0>        -0.9605
     21 C12        -6.7921   -3.8338   -2.2684 C.ar      1 <0>        -0.6288
     22 C13        -6.0597   -4.9980   -2.1107 C.ar      1 <0>         0.0023
     23 C14        -6.7012   -6.2180   -2.0249 C.ar      1 <0>        -0.1223
     24 C15        -8.0847   -6.2770   -2.0969 C.ar      1 <0>         0.1415
     25 C16        -8.8233   -5.1028   -2.2559 C.ar      1 <0>         0.0712
     26 C17        -8.1707   -3.8819   -2.3355 C.ar      1 <0>         0.0270
     27 N2        -10.1654   -5.4734   -2.2937 N.am      1 <0>        -0.6378
     28 H2        -10.9182   -4.8704   -2.3966 H         1 <0>         0.4354
     29 C18       -10.2397   -6.8114   -2.1637 C.2       1 <0>         0.6871
     30 O7        -11.2702   -7.4587   -2.1567 O.2       1 <0>        -0.5645
     31 N3         -9.0009   -7.3247   -2.0430 N.am      1 <0>        -0.6417
     32 H3         -8.7835   -8.2640   -1.9366 H         1 <0>         0.4342
     33 H4          1.5826    1.2694   -0.2886 H         1 <0>         0.0958
     34 H5          0.0172    1.3739   -1.1295 H         1 <0>         0.0531
     35 H6          0.0783    1.4356    0.6484 H         1 <0>         0.0527
     36 H7         -1.8006    0.9876   -0.1722 H         1 <0>         0.1322
     37 H8         -4.0799    0.0655   -0.0630 H         1 <0>         0.1259
     38 H9         -2.4897   -3.8904    0.0411 H         1 <0>         0.1357
     39 H10         0.6811   -5.1065   -0.0362 H         1 <0>         0.0966
     40 H11        -0.8001   -4.7767    0.8942 H         1 <0>         0.0552
     41 H12        -0.8611   -4.8384   -0.8836 H         1 <0>         0.0567
     42 H13        -4.6376   -2.9169    2.1734 H         1 <0>         0.0701
     43 H14        -5.4416   -1.3792    1.7765 H         1 <0>         0.0656
     44 H15        -6.1197   -0.9487   -0.5102 H         1 <0>         0.4149
     45 H16        -4.9822   -4.9520   -2.0550 H         1 <0>         0.1396
     46 H17        -6.1265   -7.1242   -1.9022 H         1 <0>         0.1339
     47 H18        -8.7389   -2.9712   -2.4541 H         1 <0>         0.1413
@<TRIPOS>BOND
     1    1    2 1
     2    1   33 1
     3    1   34 1
     4    1   35 1
     5    2    3 1
     6    3    8 ar
     7    3    4 ar
     8    4    5 ar
     9    4   36 1
    10    5    6 ar
    11    5   37 1
    12    6    7 ar
    13    6   11 1
    14    7    8 ar
    15    7   38 1
    16    8    9 1
    17    9   10 1
    18   10   39 1
    19   10   40 1
    20   10   41 1
    21   11   12 1
    22   11   13 1
    23   11   17 1
    24   13   14 1
    25   13   42 1
    26   13   43 1
    27   14   15 2
    28   14   16 1
    29   17   18 1
    30   17   44 1
    31   18   19 2
    32   18   20 2
    33   18   21 1
    34   21   26 ar
    35   21   22 ar
    36   22   23 ar
    37   22   45 1
    38   23   24 ar
    39   23   46 1
    40   24   31 1
    41   24   25 ar
    42   25   26 ar
    43   25   27 1
    44   26   47 1
    45   27   28 1
    46   27   29 am
    47   29   30 2
    48   29   31 am
    49   31   32 1
@<TRIPOS>MOLECULE
ZINC01233556
   32    34     0     0     0
SMALL
USER_CHARGES
5-(5-carboxy-1,3-dioxo-isoindolin-2-yl)benzene-1,3-dicarboxylic acid
@<TRIPOS>ATOM
      1 C1         -1.3223    3.3268    0.0322 C.ar      1 <0>        -0.0613
      2 C2         -2.5265    4.0109    0.0356 C.ar      1 <0>        -0.0614
      3 C3         -3.7203    3.3077    0.0377 C.ar      1 <0>        -0.1388
      4 C4         -3.7098    1.8972    0.0300 C.ar      1 <0>        -0.1507
      5 C5         -2.5059    1.2151    0.0205 C.ar      1 <0>        -0.0101
      6 C6         -1.3052    1.9323    0.0187 C.ar      1 <0>        -0.0987
      7 C7         -0.0144    1.2103    0.0087 C.2       1 <0>         0.4946
      8 O1          0.0021   -0.0041    0.0020 O.co2     1 <0>        -0.6223
      9 C8         -5.1286    1.4822    0.0340 C.2       1 <0>         0.5675
     10 O2         -5.5317    0.3365    0.0289 O.2       1 <0>        -0.4454
     11 N1         -5.8987    2.5849    0.0434 N.am      1 <0>        -0.5086
     12 C9         -5.1476    3.7007    0.0461 C.2       1 <0>         0.5681
     13 O3         -5.5694    4.8393    0.0545 O.2       1 <0>        -0.4515
     14 C10        -7.3007    2.5728    0.0490 C.ar      1 <0>         0.0732
     15 C11        -7.9820    1.3650    0.0392 C.ar      1 <0>        -0.0993
     16 C12        -9.3783    1.3489    0.0497 C.ar      1 <0>        -0.1278
     17 C13       -10.0872    2.5488    0.0590 C.ar      1 <0>        -0.0321
     18 C14        -9.3990    3.7607    0.0635 C.ar      1 <0>        -0.1290
     19 C15        -8.0026    3.7687    0.0587 C.ar      1 <0>        -0.0997
     20 C16       -10.1460    5.0356    0.0727 C.2       1 <0>         0.5009
     21 O4         -9.5454    6.0914    0.0762 O.co2     1 <0>        -0.6399
     22 C17       -10.1033    0.0615    0.0450 C.2       1 <0>         0.5002
     23 O5         -9.4847   -0.9839    0.0370 O.co2     1 <0>        -0.6380
     24 H1         -0.3922    3.8758    0.0352 H         1 <0>         0.1466
     25 H2         -2.5349    5.0908    0.0414 H         1 <0>         0.1369
     26 H3         -2.4935    0.1351    0.0150 H         1 <0>         0.1455
     27 H4         -7.4319    0.4356    0.0276 H         1 <0>         0.1560
     28 H5        -11.1672    2.5395    0.0623 H         1 <0>         0.1415
     29 H6         -7.4686    4.7074    0.0622 H         1 <0>         0.1553
     30 O6          1.1428    1.8995    0.0013 O.co2     1 <0>        -0.7527
     31 O7        -11.4930    5.0269    0.0773 O.co2     1 <0>        -0.7591
     32 O8        -11.4503    0.0469    0.0496 O.co2     1 <0>        -0.7596
@<TRIPOS>BOND
     1    1    6 ar
     2    1    2 ar
     3    1   24 1
     4    2    3 ar
     5    2   25 1
     6    3   12 1
     7    3    4 ar
     8    4    5 ar
     9    4    9 1
    10    5    6 ar
    11    5   26 1
    12    6    7 1
    13    7    8 2
    14    7   30 1
    15    9   10 2
    16    9   11 am
    17   11   12 am
    18   11   14 1
    19   12   13 2
    20   14   19 ar
    21   14   15 ar
    22   15   16 ar
    23   15   27 1
    24   16   17 ar
    25   16   22 1
    26   17   18 ar
    27   17   28 1
    28   18   19 ar
    29   18   20 1
    30   19   29 1
    31   20   21 2
    32   20   31 1
    33   22   23 2
    34   22   32 1
@<TRIPOS>MOLECULE
ZINC04863041
   29    29     0     0     0
SMALL
USER_CHARGES
(1S,2R)-4-isopropylcyclohex-4-ene-1,2-dicarboxylic acid
@<TRIPOS>ATOM
      1 C1          3.9820    7.4253    1.2991 C.3       1 <0>        -0.1360
      2 C2          2.5335    7.3307    0.8155 C.3       1 <0>        -0.0549
      3 C3          2.4000    8.0350   -0.5362 C.3       1 <0>        -0.1387
      4 C4          2.1470    5.8816    0.6673 C.2       1 <0>        -0.1062
      5 C5          1.1567    5.4421    1.3755 C.2       1 <0>        -0.1257
      6 C6          0.6641    4.0249    1.3439 C.3       1 <0>        -0.0573
      7 C7          1.1868    3.3130    0.0942 C.3       1 <0>        -0.1044
      8 H1          0.6935    3.7122   -0.7920 H         1 <0>         0.0493
      9 C8          2.6985    3.5535   -0.0046 C.3       1 <0>        -0.1146
     10 H2          3.1128    2.9532   -0.8146 H         1 <0>         0.0598
     11 C9          2.9346    5.0379   -0.2918 C.3       1 <0>        -0.0519
     12 C10         3.3574    3.1785    1.2978 C.2       1 <0>         0.4803
     13 O1          3.4153    3.9816    2.1987 O.co2     1 <0>        -0.6597
     14 C11         0.9151    1.8346    0.2025 C.2       1 <0>         0.4551
     15 O2          1.8338    1.0499    0.2011 O.co2     1 <0>        -0.5882
     16 H3          4.0771    6.9236    2.2621 H         1 <0>         0.0633
     17 H4          4.6393    6.9464    0.5734 H         1 <0>         0.0530
     18 H5          4.2615    8.4734    1.4063 H         1 <0>         0.0357
     19 H6          1.8762    7.8096    1.5412 H         1 <0>         0.0596
     20 H7          1.3681    7.9676   -0.8807 H         1 <0>         0.0493
     21 H8          2.6796    9.0830   -0.4289 H         1 <0>         0.0415
     22 H9          3.0574    7.5560   -1.2619 H         1 <0>         0.0536
     23 H10         0.6534    6.1387    2.0296 H         1 <0>         0.0798
     24 H11        -0.4258    4.0214    1.3325 H         1 <0>         0.0524
     25 H12         1.0158    3.5003    2.2323 H         1 <0>         0.0707
     26 H13         3.9957    5.2626   -0.1835 H         1 <0>         0.0540
     27 H14         2.6221    5.2628   -1.3116 H         1 <0>         0.0429
     28 O3          3.8798    1.9524    1.4570 O.co2     1 <0>        -0.7526
     29 O4         -0.3475    1.3897    0.3005 O.co2     1 <0>        -0.8100
@<TRIPOS>BOND
     1    1    2 1
     2    1   16 1
     3    1   17 1
     4    1   18 1
     5    2    3 1
     6    2    4 1
     7    2   19 1
     8    3   20 1
     9    3   21 1
    10    3   22 1
    11    4   11 1
    12    4    5 2
    13    5    6 1
    14    5   23 1
    15    6    7 1
    16    6   24 1
    17    6   25 1
    18    7    8 1
    19    7    9 1
    20    7   14 1
    21    9   10 1
    22    9   11 1
    23    9   12 1
    24   11   26 1
    25   11   27 1
    26   12   13 2
    27   12   28 1
    28   14   15 2
    29   14   29 1
@<TRIPOS>MOLECULE
ZINC34958069
   24    24     0     0     0
SMALL
USER_CHARGES

@<TRIPOS>ATOM
      1 C1          1.5380    1.2865   -1.4733 C.ar      1 <0>        -0.0608
      2 C2          1.1434    2.0695   -0.4031 C.ar      1 <0>        -0.1556
      3 C3          0.7805    1.4781    0.7939 C.ar      1 <0>        -0.0580
      4 C4          0.8108    0.1023    0.9239 C.ar      1 <0>        -0.1158
      5 C5          1.2062   -0.6869   -0.1492 C.ar      1 <0>         0.3060
      6 C6          1.5705   -0.0898   -1.3499 C.ar      1 <0>        -0.0738
      7 Cl1         2.0652   -1.0714   -2.6936 Cl        1 <0>        -0.0679
      8 N1          1.2380   -2.0794   -0.0210 N.2       1 <0>        -1.1283
      9 S1         -0.1759   -2.9309    0.1135 S.o2      1 <0>         2.5447
     10 O1         -0.7334   -2.5147    1.3525 O.2       1 <0>        -1.0172
     11 O2         -0.8621   -2.6895   -1.1072 O.2       1 <0>        -1.0321
     12 C7          0.3342   -4.6690    0.2104 C.3       1 <0>        -0.5517
     13 C8         -0.9047   -5.5577    0.3383 C.3       1 <0>        -0.1747
     14 C9         -0.4810   -7.0017    0.4188 C.2       1 <0>         0.5014
     15 O3          0.7022   -7.2930    0.3776 O.co2     1 <0>        -0.6932
     16 O4         -1.3213   -7.8786    0.5251 O.co2     1 <0>        -0.7122
     17 Cl2         0.3559   -0.6388    2.4264 Cl        1 <0>        -0.0325
     18 Br1         1.1005    3.9520   -0.5765 Br        1 <0>        -0.0845
     19 H1          1.8168    1.7510   -2.4077 H         1 <0>         0.1247
     20 H2          0.4736    2.0921    1.6277 H         1 <0>         0.1234
     21 H3          0.8823   -4.9377   -0.6927 H         1 <0>         0.1130
     22 H4          0.9751   -4.8117    1.0804 H         1 <0>         0.1138
     23 H5         -1.4529   -5.2891    1.2413 H         1 <0>         0.0661
     24 H6         -1.5456   -5.4151   -0.5317 H         1 <0>         0.0649
@<TRIPOS>BOND
     1    1    6 ar
     2    1    2 ar
     3    1   19 1
     4    2    3 ar
     5    2   18 1
     6    3    4 ar
     7    3   20 1
     8    4    5 ar
     9    4   17 1
    10    5    6 ar
    11    5    8 1
    12    6    7 1
    13    8    9 1
    14    9   10 2
    15    9   11 2
    16    9   12 1
    17   12   13 1
    18   12   21 1
    19   12   22 1
    20   13   14 1
    21   13   23 1
    22   13   24 1
    23   14   15 2
    24   14   16 1
@<TRIPOS>MOLECULE
ZINC44223369
   20    20     0     0     0
SMALL
USER_CHARGES

@<TRIPOS>ATOM
      1 C1         -0.7450    1.3679    0.0836 C.3       1 <0>        -0.0847
      2 C2         -0.2176   -0.0426    0.0242 C.2       1 <0>        -0.1257
      3 C3          0.1242   -0.6838    1.1619 C.2       1 <0>        -0.1179
      4 C4          0.1267    0.0413    2.4436 C.ar      1 <0>         0.2135
      5 C5          0.3636   -0.6526    3.6312 C.ar      1 <0>        -0.2058
      6 C6          0.3628    0.0494    4.8343 C.ar      1 <0>         0.3024
      7 C7          0.1245    1.4200    4.8010 C.ar      1 <0>        -0.2993
      8 C8         -0.1028    2.0405    3.5834 C.ar      1 <0>         0.2091
      9 N1         -0.0915    1.3543    2.4597 N.ar      1 <0>        -0.5375
     10 Cl1        -0.4004    3.7502    3.5378 Cl        1 <0>        -0.0896
     11 O1          0.5886   -0.5884    6.0114 O.3       1 <0>        -0.7012
     12 Cl2         0.6542   -2.3640    3.6094 Cl        1 <0>        -0.0918
     13 C9         -0.0804   -0.6964   -1.2270 C.2       1 <0>         0.5122
     14 O2          0.3482   -1.8426   -1.2753 O.co2     1 <0>        -0.6993
     15 O3         -0.3905   -0.1146   -2.2591 O.co2     1 <0>        -0.7034
     16 H1          0.0906    2.0670    0.1179 H         1 <0>         0.0562
     17 H2         -1.3495    1.5673   -0.8012 H         1 <0>         0.0415
     18 H3         -1.3574    1.4895    0.9771 H         1 <0>         0.0737
     19 H4          0.3959   -1.7287    1.1321 H         1 <0>         0.1332
     20 H5          0.1165    1.9943    5.7155 H         1 <0>         0.1143
@<TRIPOS>BOND
     1    1    2 1
     2    1   16 1
     3    1   17 1
     4    1   18 1
     5    2    3 2
     6    2   13 1
     7    3    4 1
     8    3   19 1
     9    4    9 ar
    10    4    5 ar
    11    5    6 ar
    12    5   12 1
    13    6    7 ar
    14    6   11 1
    15    7    8 ar
    16    7   20 1
    17    8    9 ar
    18    8   10 1
    19   13   14 2
    20   13   15 1
@<TRIPOS>MOLECULE
ZINC57957653
   32    32     0     0     0
SMALL
USER_CHARGES

@<TRIPOS>ATOM
      1 C1         -0.0187    1.5258    0.0104 C.3       1 <0>        -0.1416
      2 C2          0.0021   -0.0041    0.0020 C.3       1 <0>        -0.0638
      3 C3         -1.4117   -0.5257    0.0127 C.ar      1 <0>        -0.1241
      4 C4         -1.9978   -0.9588   -1.1611 C.ar      1 <0>        -0.0982
      5 C5         -3.2949   -1.4370   -1.1521 C.ar      1 <0>        -0.0348
      6 C6         -4.0089   -1.4835    0.0313 C.ar      1 <0>        -0.0454
      7 C7         -3.4274   -1.0521    1.2075 C.ar      1 <0>        -0.2071
      8 C8         -2.1238   -0.5767    1.2020 C.ar      1 <0>         0.0869
      9 O1         -1.5475   -0.1568    2.3589 O.3       1 <0>        -0.3234
     10 C9         -2.3400   -0.2381    3.5453 C.3       1 <0>         0.0323
     11 C10        -3.9320   -1.9079   -2.4340 C.3       1 <0>        -0.1077
     12 H1         -3.2231   -1.7962   -3.2545 H         1 <0>         0.0650
     13 C11        -4.3258   -3.3800   -2.2971 C.3       1 <0>        -0.1494
     14 C12        -4.8498   -3.8846   -3.6169 C.2       1 <0>         0.4864
     15 O2         -4.9033   -3.1362   -4.5779 O.co2     1 <0>        -0.6388
     16 O3         -5.2202   -5.0413   -3.7236 O.co2     1 <0>        -0.7482
     17 C13        -5.1613   -1.0832   -2.7165 C.2       1 <0>         0.4986
     18 O4         -5.4896   -0.1954   -1.9481 O.co2     1 <0>        -0.7310
     19 O5         -5.8275   -1.3038   -3.7135 O.co2     1 <0>        -0.6412
     20 H2          1.0039    1.9031    0.0027 H         1 <0>         0.0446
     21 H3         -0.5459    1.8868   -0.8726 H         1 <0>         0.0540
     22 H4         -0.5289    1.8773    0.9072 H         1 <0>         0.0544
     23 H5          0.5123   -0.3556   -0.8948 H         1 <0>         0.0617
     24 H6          0.5293   -0.3651    0.8851 H         1 <0>         0.0629
     25 H7         -1.4422   -0.9235   -2.0866 H         1 <0>         0.1176
     26 H8         -5.0222   -1.8571    0.0357 H         1 <0>         0.1184
     27 H9         -3.9854   -1.0886    2.1315 H         1 <0>         0.1135
     28 H10        -2.6268   -1.2750    3.7203 H         1 <0>         0.0476
     29 H11        -1.7620    0.1273    4.3941 H         1 <0>         0.0857
     30 H12        -3.2358    0.3715    3.4263 H         1 <0>         0.0491
     31 H13        -3.4529   -3.9640   -2.0055 H         1 <0>         0.0340
     32 H14        -5.1002   -3.4797   -1.5366 H         1 <0>         0.0419
@<TRIPOS>BOND
     1    1    2 1
     2    1   20 1
     3    1   21 1
     4    1   22 1
     5    2    3 1
     6    2   23 1
     7    2   24 1
     8    3    8 ar
     9    3    4 ar
    10    4    5 ar
    11    4   25 1
    12    5    6 ar
    13    5   11 1
    14    6    7 ar
    15    6   26 1
    16    7    8 ar
    17    7   27 1
    18    8    9 1
    19    9   10 1
    20   10   28 1
    21   10   29 1
    22   10   30 1
    23   11   12 1
    24   11   13 1
    25   11   17 1
    26   13   14 1
    27   13   31 1
    28   13   32 1
    29   14   15 2
    30   14   16 1
    31   17   18 2
    32   17   19 1
@<TRIPOS>MOLECULE
ZINC67341285
   29    31     0     0     0
SMALL
USER_CHARGES

@<TRIPOS>ATOM
      1 C1         -0.0167    1.3796    0.0096 C.ar      1 <0>        -0.1124
      2 C2          1.1662    2.0887    0.0021 C.ar      1 <0>        -0.1032
      3 C3          2.3855    1.4066   -0.0131 C.ar      1 <0>        -0.1325
      4 C4          2.3967    0.0095   -0.0207 C.ar      1 <0>        -0.1008
      5 C5          1.2059   -0.6864   -0.0130 C.ar      1 <0>        -0.1027
      6 C6          0.0021   -0.0041    0.0020 C.ar      1 <0>        -0.1189
      7 C7         -1.2948   -0.7716    0.0107 C.3       1 <0>         0.1459
      8 N1         -1.7287   -1.0129   -1.3676 N.pl3     1 <0>        -0.4778
      9 C8         -2.5301   -0.1075   -2.0077 C.2       1 <0>         0.5251
     10 O1         -2.9344    1.0197   -1.3853 O.3       1 <0>        -0.6235
     11 C9         -2.9115   -0.3732   -3.2964 C.2       1 <0>        -0.3361
     12 C10        -2.4954   -1.5525   -3.9655 C.2       1 <0>         0.2084
     13 C11        -2.9627   -1.6909   -5.2801 C.2       1 <0>        -0.1562
     14 C12        -3.7506   -0.7405   -5.8258 C.2       1 <0>        -0.1374
     15 S1         -3.9063    0.4547   -4.5092 S.3       1 <0>         0.0866
     16 N2         -1.7029   -2.3941   -3.2551 N.2       1 <0>        -0.5431
     17 C13        -1.3385   -2.1238   -2.0173 C.2       1 <0>         0.5110
     18 S2         -0.3305   -3.2394   -1.1986 S.2       1 <0>        -0.7084
     19 C14         3.6552    2.1581   -0.0217 C.2       1 <0>         0.5231
     20 O2          3.6420    3.3809   -0.0154 O.co2     1 <0>        -0.6958
     21 O3          4.7207    1.5581   -0.0350 O.co2     1 <0>        -0.6933
     22 H1         -0.9599    1.9055    0.0260 H         1 <0>         0.1183
     23 H2          1.1501    3.1686    0.0077 H         1 <0>         0.1191
     24 H3          3.3355   -0.5243   -0.0328 H         1 <0>         0.1210
     25 H4          1.2130   -1.7663   -0.0192 H         1 <0>         0.1460
     26 H5         -1.1491   -1.7253    0.5180 H         1 <0>         0.1188
     27 H6         -2.0556   -0.1936    0.5352 H         1 <0>         0.0905
     28 H7         -2.6909   -2.5615   -5.8587 H         1 <0>         0.1383
     29 H8         -4.1808   -0.7104   -6.8159 H         1 <0>         0.1903
@<TRIPOS>BOND
     1    1    6 ar
     2    1    2 ar
     3    1   22 1
     4    2    3 ar
     5    2   23 1
     6    3    4 ar
     7    3   19 1
     8    4    5 ar
     9    4   24 1
    10    5    6 ar
    11    5   25 1
    12    6    7 1
    13    7    8 1
    14    7   26 1
    15    7   27 1
    16    8   17 1
    17    8    9 1
    18    9   10 1
    19    9   11 2
    20   11   15 1
    21   11   12 1
    22   12   13 1
    23   12   16 2
    24   13   14 2
    25   13   28 1
    26   14   15 1
    27   14   29 1
    28   16   17 1
    29   17   18 2
    30   19   20 2
    31   19   21 1
@<TRIPOS>MOLECULE
ZINC24432993
   25    26     0     0     0
SMALL
USER_CHARGES
3-[(5-chloro-2-thienyl)sulfonylamino]-4-fluoro-benzoic acid
@<TRIPOS>ATOM
      1 C1         -1.0082    1.4862    0.5274 C.ar      1 <0>        -0.1168
      2 C2          0.2422    0.9102    0.4400 C.ar      1 <0>        -0.1564
      3 C3          1.3634    1.7029    0.2634 C.ar      1 <0>         0.0448
      4 C4          1.2362    3.0875    0.1792 C.ar      1 <0>         0.1751
      5 C5         -0.0142    3.6743    0.2716 C.ar      1 <0>        -0.1684
      6 C6         -1.1451    2.8739    0.4492 C.ar      1 <0>        -0.1009
      7 C7         -2.4817    3.4925    0.5481 C.2       1 <0>         0.4939
      8 O1         -2.5993    4.6995    0.4749 O.co2     1 <0>        -0.6288
      9 O2         -3.5711    2.7187    0.7195 O.co2     1 <0>        -0.7746
     10 N1          2.3717    3.8848    0.0017 N.2       1 <0>        -1.0395
     11 S1          2.4616    5.3708    0.7269 S.o2      1 <0>         2.5852
     12 O3          3.7689    5.8674    0.4747 O.2       1 <0>        -0.9970
     13 O4          1.2906    6.0801    0.3461 O.2       1 <0>        -1.0160
     14 C8          2.3489    5.1096    2.4658 C.2       1 <0>        -0.6801
     15 C9          3.3419    4.8931    3.3621 C.2       1 <0>        -0.0637
     16 C10         3.0160    4.7122    4.6936 C.2       1 <0>        -0.1613
     17 C11         1.7114    4.7568    5.0626 C.2       1 <0>        -0.1386
     18 S2          0.8976    5.0691    3.5046 S.3       1 <0>         0.2242
     19 Cl1         1.0146    4.5669    6.6412 Cl        1 <0>        -0.0029
     20 F1          2.5845    1.1320    0.1730 F         1 <0>        -0.1529
     21 H1         -1.8810    0.8642    0.6607 H         1 <0>         0.1227
     22 H2          0.3464   -0.1628    0.5051 H         1 <0>         0.1115
     23 H3         -0.1151    4.7476    0.2061 H         1 <0>         0.1606
     24 H4          4.3727    4.8621    3.0411 H         1 <0>         0.1447
     25 H5          3.7881    4.5377    5.4284 H         1 <0>         0.1349
@<TRIPOS>BOND
     1    1    6 ar
     2    1    2 ar
     3    1   21 1
     4    2    3 ar
     5    2   22 1
     6    3    4 ar
     7    3   20 1
     8    4    5 ar
     9    4   10 1
    10    5    6 ar
    11    5   23 1
    12    6    7 1
    13    7    8 2
    14    7    9 1
    15   10   11 1
    16   11   12 2
    17   11   13 2
    18   11   14 1
    19   14   18 1
    20   14   15 2
    21   15   16 1
    22   15   24 1
    23   16   17 2
    24   16   25 1
    25   17   18 1
    26   17   19 1
@<TRIPOS>MOLECULE
ZINC05401599
   30    31     0     0     0
SMALL
USER_CHARGES

@<TRIPOS>ATOM
      1 C1         -0.0184    1.5028    0.0103 C.3       1 <0>        -0.1087
      2 C2          0.0021   -0.0041    0.0020 C.ar      1 <0>         0.0206
      3 C3          0.0061   -0.7039   -1.1880 C.ar      1 <0>        -0.2501
      4 C4          0.0250   -2.0952   -1.1651 C.ar      1 <0>         0.4360
      5 N1          0.0393   -2.7601   -0.0216 N.ar      1 <0>        -0.5275
      6 C5          0.0362   -2.1348    1.1476 C.ar      1 <0>         0.1947
      7 C6          0.0233   -0.7275    1.2021 C.ar      1 <0>        -0.1646
      8 C7          0.0265   -0.0475    2.4624 C.1       1 <0>         0.2721
      9 N2          0.0291    0.4919    3.4621 N.1       1 <0>        -0.4407
     10 S1          0.0552   -3.0694    2.6412 S.3       1 <0>        -0.0423
     11 S2          2.0495   -3.3061    3.0528 S.3       1 <0>        -0.0423
     12 C8          2.4836   -1.8345    3.9192 C.ar      1 <0>         0.1947
     13 C9          2.9332   -0.7076    3.2042 C.ar      1 <0>        -0.1647
     14 C10         3.2727    0.4525    3.9133 C.ar      1 <0>         0.0209
     15 C11         3.1516    0.4419    5.2884 C.ar      1 <0>        -0.2501
     16 C12         2.7002   -0.7086    5.9281 C.ar      1 <0>         0.4359
     17 N3          2.3799   -1.7923    5.2404 N.ar      1 <0>        -0.5275
     18 O1          2.5824   -0.7174    7.2783 O.3       1 <0>        -0.6973
     19 C13         3.7592    1.6828    3.1915 C.3       1 <0>        -0.1087
     20 C14         3.0422   -0.7467    1.7768 C.1       1 <0>         0.2721
     21 N4          3.1286   -0.7778    0.6446 N.1       1 <0>        -0.4408
     22 O2          0.0285   -2.7807   -2.3343 O.3       1 <0>        -0.6973
     23 H1          1.0042    1.8801    0.0026 H         1 <0>         0.0681
     24 H2         -0.5455    1.8639   -0.8728 H         1 <0>         0.0653
     25 H3         -0.5286    1.8543    0.9071 H         1 <0>         0.0597
     26 H4         -0.0058   -0.1755   -2.1298 H         1 <0>         0.1147
     27 H5          3.4057    1.3200    5.8637 H         1 <0>         0.1147
     28 H6          2.9081    2.3135    2.9344 H         1 <0>         0.0681
     29 H7          4.4404    2.2372    3.8370 H         1 <0>         0.0653
     30 H8          4.2807    1.3875    2.2811 H         1 <0>         0.0597
@<TRIPOS>BOND
     1    1    2 1
     2    1   23 1
     3    1   24 1
     4    1   25 1
     5    2    7 ar
     6    2    3 ar
     7    3    4 ar
     8    3   26 1
     9    4    5 ar
    10    4   22 1
    11    5    6 ar
    12    6    7 ar
    13    6   10 1
    14    7    8 1
    15    8    9 3
    16   10   11 1
    17   11   12 1
    18   12   17 ar
    19   12   13 ar
    20   13   14 ar
    21   13   20 1
    22   14   15 ar
    23   14   19 1
    24   15   16 ar
    25   15   27 1
    26   16   17 ar
    27   16   18 1
    28   19   28 1
    29   19   29 1
    30   19   30 1
    31   20   21 3
@<TRIPOS>MOLECULE
ZINC49060831
   29    30     0     0     0
SMALL
USER_CHARGES

@<TRIPOS>ATOM
      1 C1         -0.0169    1.3969    0.0097 C.ar      1 <0>        -0.0627
      2 C2          1.1577    2.0938    0.0022 C.ar      1 <0>        -0.1857
      3 C3          2.3732    1.4138   -0.0135 C.ar      1 <0>         0.2794
      4 C4          2.3969    0.0211   -0.0212 C.ar      1 <0>        -0.2666
      5 C5          1.2272   -0.6839   -0.0138 C.ar      1 <0>        -0.0486
      6 C6          0.0021   -0.0041    0.0020 C.ar      1 <0>        -0.1594
      7 C7         -1.2575   -0.7573    0.0105 C.2       1 <0>        -0.0624
      8 C8         -1.2368   -2.1111    0.0030 C.2       1 <0>        -0.2302
      9 C9         -2.4493   -2.8362    0.0112 C.2       1 <0>         0.5101
     10 O1         -3.5197   -2.2398    0.0250 O.co2     1 <0>        -0.7110
     11 O2         -2.4306   -4.0614    0.0044 O.co2     1 <0>        -0.7167
     12 N1          3.5663    2.1273   -0.0220 N.2       1 <0>        -1.0900
     13 S1          5.0129    1.3213   -0.0406 S.o2      1 <0>         2.6143
     14 O3          5.1121    0.6362    1.2003 O.2       1 <0>        -1.0062
     15 O4          5.0869    0.6488   -1.2902 O.2       1 <0>        -1.0061
     16 C10         6.2871    2.5382   -0.0474 C.2       1 <0>        -0.6364
     17 C11         7.6319    2.3662   -0.0675 C.2       1 <0>        -0.0347
     18 C12         8.4501    3.4808   -0.0693 C.2       1 <0>        -0.1616
     19 C13         7.8835    4.7121   -0.0510 C.2       1 <0>        -0.1825
     20 S2          6.1425    4.3176   -0.0376 S.3       1 <0>         0.2219
     21 Br1         8.3771    0.6284   -0.0919 Br        1 <0>        -0.0330
     22 H1         -0.9589    1.9250    0.0260 H         1 <0>         0.1083
     23 H2          1.1440    3.1737    0.0082 H         1 <0>         0.1105
     24 H3          3.3417   -0.5020   -0.0334 H         1 <0>         0.0941
     25 H4          1.2465   -1.7637   -0.0205 H         1 <0>         0.1097
     26 H5         -2.2009   -0.2317    0.0227 H         1 <0>         0.1148
     27 H6         -0.2934   -2.6367   -0.0092 H         1 <0>         0.0941
     28 H7          9.5245    3.3721   -0.0847 H         1 <0>         0.1423
     29 H8          8.3614    5.6807   -0.0494 H         1 <0>         0.1944
@<TRIPOS>BOND
     1    1    6 ar
     2    1    2 ar
     3    1   22 1
     4    2    3 ar
     5    2   23 1
     6    3    4 ar
     7    3   12 1
     8    4    5 ar
     9    4   24 1
    10    5    6 ar
    11    5   25 1
    12    6    7 1
    13    7    8 2
    14    7   26 1
    15    8    9 1
    16    8   27 1
    17    9   10 2
    18    9   11 1
    19   12   13 1
    20   13   14 2
    21   13   15 2
    22   13   16 1
    23   16   20 1
    24   16   17 2
    25   17   18 1
    26   17   21 1
    27   18   19 2
    28   18   28 1
    29   19   20 1
    30   19   29 1
@<TRIPOS>MOLECULE
ZINC35635541
   36    38     0     0     0
SMALL
USER_CHARGES

@<TRIPOS>ATOM
      1 C1         -0.0173    1.4248    0.0099 C.3       1 <0>         0.0298
      2 O1          0.0021   -0.0041    0.0020 O.3       1 <0>        -0.3229
      3 C2          0.6058   -0.6071   -1.0557 C.ar      1 <0>         0.1189
      4 C3          1.1730    0.1607   -2.0624 C.ar      1 <0>        -0.2233
      5 C4          1.7865   -0.4547   -3.1363 C.ar      1 <0>        -0.0563
      6 C5          1.8352   -1.8346   -3.2086 C.ar      1 <0>        -0.1315
      7 C6          1.2702   -2.6021   -2.2068 C.ar      1 <0>        -0.0452
      8 C7          0.6609   -1.9915   -1.1277 C.ar      1 <0>        -0.1647
      9 C8          2.5046   -2.5033   -4.3815 C.3       1 <0>         0.1386
     10 N1          3.9227   -2.7134   -4.0797 N.pl3     1 <0>        -0.4904
     11 C9          4.8195   -1.7539   -4.3934 C.2       1 <0>         0.5055
     12 O2          4.4275   -0.6087   -4.9783 O.3       1 <0>        -0.6281
     13 C10         6.1794   -1.9838   -4.0909 C.ar      1 <0>        -0.2333
     14 C11         7.1680   -1.0345   -4.3859 C.ar      1 <0>        -0.0452
     15 C12         8.4694   -1.2915   -4.0789 C.ar      1 <0>        -0.1363
     16 C13         8.8384   -2.5009   -3.4677 C.ar      1 <0>        -0.0826
     17 C14         7.8828   -3.4581   -3.1642 C.ar      1 <0>        -0.1056
     18 C15         6.5369   -3.2104   -3.4728 C.ar      1 <0>         0.1949
     19 N2          5.5792   -4.1068   -3.1971 N.2       1 <0>        -0.5459
     20 C16         4.3124   -3.8557   -3.4898 C.2       1 <0>         0.4980
     21 S1          3.1289   -5.0326   -3.1088 S.2       1 <0>        -0.7545
     22 C17        10.2593   -2.7558   -3.1455 C.2       1 <0>         0.5231
     23 O3         11.1065   -1.9155   -3.4112 O.co2     1 <0>        -0.6907
     24 O4         10.5865   -3.8066   -2.6135 O.co2     1 <0>        -0.6840
     25 H1          1.0053    1.8021    0.0021 H         1 <0>         0.0527
     26 H2         -0.5445    1.7859   -0.8732 H         1 <0>         0.0512
     27 H3         -0.5275    1.7763    0.9067 H         1 <0>         0.0926
     28 H4          1.1347    1.2385   -2.0068 H         1 <0>         0.1201
     29 H5          2.2283    0.1425   -3.9203 H         1 <0>         0.1308
     30 H6          1.3092   -3.6798   -2.2657 H         1 <0>         0.1643
     31 H7          0.2237   -2.5913   -0.3432 H         1 <0>         0.1251
     32 H8          2.0276   -3.4646   -4.5726 H         1 <0>         0.1208
     33 H9          2.4108   -1.8695   -5.2632 H         1 <0>         0.0894
     34 H10         6.8978   -0.1007   -4.8565 H         1 <0>         0.1223
     35 H11         9.2269   -0.5568   -4.3084 H         1 <0>         0.1256
     36 H12         8.1720   -4.3867   -2.6945 H         1 <0>         0.1368
@<TRIPOS>BOND
     1    1    2 1
     2    1   25 1
     3    1   26 1
     4    1   27 1
     5    2    3 1
     6    3    8 ar
     7    3    4 ar
     8    4    5 ar
     9    4   28 1
    10    5    6 ar
    11    5   29 1
    12    6    7 ar
    13    6    9 1
    14    7    8 ar
    15    7   30 1
    16    8   31 1
    17    9   10 1
    18    9   32 1
    19    9   33 1
    20   10   20 1
    21   10   11 1
    22   11   12 1
    23   11   13 2
    24   13   18 ar
    25   13   14 ar
    26   14   15 ar
    27   14   34 1
    28   15   16 ar
    29   15   35 1
    30   16   17 ar
    31   16   22 1
    32   17   18 ar
    33   17   36 1
    34   18   19 2
    35   19   20 1
    36   20   21 2
    37   22   23 2
    38   22   24 1
@<TRIPOS>MOLECULE
ZINC39869933
   35    37     0     0     0
SMALL
USER_CHARGES

@<TRIPOS>ATOM
      1 C1         -0.0860    1.4202   -0.6081 C.3       1 <0>        -0.0736
      2 C2         -0.0392   -0.0648   -0.3554 C.2       1 <0>        -0.0246
      3 C3         -1.1141   -0.8632   -0.1699 C.2       1 <0>        -0.2303
      4 C4         -0.6340   -2.1659    0.0311 C.2       1 <0>        -0.2230
      5 C5          0.7431   -2.0929   -0.0439 C.2       1 <0>         0.0460
      6 O1          1.0749   -0.8070   -0.2841 O.3       1 <0>        -0.0863
      7 C6          1.6437   -3.1726    0.1005 C.2       1 <0>        -0.0640
      8 C7          2.9820   -2.9711   -0.0657 C.2       1 <0>        -0.1316
      9 C8          3.7342   -1.7120   -0.2481 C.2       1 <0>         0.5036
     10 O2          3.1756   -0.6260   -0.2700 O.2       1 <0>        -0.5228
     11 N1          5.0376   -1.8238   -0.3853 N.2       1 <0>        -0.6855
     12 C9          5.6554   -2.9939   -0.3631 C.2       1 <0>         0.4191
     13 S1          4.3212   -4.1553   -0.1162 S.3       1 <0>        -0.1638
     14 N2          6.9966   -3.2519   -0.4931 N.2       1 <0>        -0.5352
     15 C10         7.9205   -2.2041   -0.4221 C.ar      1 <0>         0.0843
     16 C11         7.6000   -1.0448    0.2691 C.ar      1 <0>        -0.0931
     17 C12         8.5203    0.0042    0.3423 C.ar      1 <0>        -0.1618
     18 C13         9.7621   -0.1155   -0.2806 C.ar      1 <0>        -0.0666
     19 C14        10.0805   -1.2823   -0.9745 C.ar      1 <0>        -0.1667
     20 C15         9.1571   -2.3292   -1.0383 C.ar      1 <0>        -0.0846
     21 C16        11.3934   -1.4139   -1.6354 C.2       1 <0>         0.5337
     22 O3         12.2029   -0.4993   -1.5748 O.co2     1 <0>        -0.7029
     23 O4         11.6719   -2.4375   -2.2437 O.co2     1 <0>        -0.7105
     24 C17         8.1783    1.2372    1.0774 C.2       1 <0>         0.5290
     25 O5          7.0889    1.3415    1.6230 O.co2     1 <0>        -0.6966
     26 O6          8.9843    2.1547    1.1409 O.co2     1 <0>        -0.7095
     27 H1          0.9286    1.8011   -0.7243 H         1 <0>         0.0826
     28 H2         -0.6541    1.6162   -1.5174 H         1 <0>         0.0732
     29 H3         -0.5664    1.9172    0.2347 H         1 <0>         0.0748
     30 H4         -2.1493   -0.5555   -0.1750 H         1 <0>         0.1345
     31 H5         -1.2252   -3.0519    0.2099 H         1 <0>         0.1394
     32 H6          1.2718   -4.1573    0.3426 H         1 <0>         0.1464
     33 H7          6.6379   -0.9527    0.7510 H         1 <0>         0.1352
     34 H8         10.4753    0.6937   -0.2261 H         1 <0>         0.1195
     35 H9          9.4047   -3.2350   -1.5718 H         1 <0>         0.1116
@<TRIPOS>BOND
     1    1    2 1
     2    1   27 1
     3    1   28 1
     4    1   29 1
     5    2    6 1
     6    2    3 2
     7    3    4 1
     8    3   30 1
     9    4    5 2
    10    4   31 1
    11    5    6 1
    12    5    7 1
    13    7    8 2
    14    7   32 1
    15    8   13 1
    16    8    9 1
    17    9   10 2
    18    9   11 1
    19   11   12 2
    20   12   13 1
    21   12   14 1
    22   14   15 1
    23   15   20 ar
    24   15   16 ar
    25   16   17 ar
    26   16   33 1
    27   17   18 ar
    28   17   24 1
    29   18   19 ar
    30   18   34 1
    31   19   20 ar
    32   19   21 1
    33   20   35 1
    34   21   22 2
    35   21   23 1
    36   24   25 2
    37   24   26 1
@<TRIPOS>MOLECULE
ZINC03028982
   23    24     0     0     0
SMALL
USER_CHARGES
2-oxo-6-sulfo-1H-quinoline-4-carboxylic acid
@<TRIPOS>ATOM
      1 C1         -1.8916    1.0485    1.9626 C.ar      1 <0>         0.0126
      2 C2         -2.5985    1.3997    3.0919 C.ar      1 <0>        -0.2103
      3 C3         -2.3892    2.6440    3.6810 C.ar      1 <0>         0.1907
      4 C4         -1.4549    3.5272    3.1113 C.ar      1 <0>        -0.1345
      5 C5         -0.7451    3.1474    1.9687 C.ar      1 <0>         0.0407
      6 C6         -0.9705    1.9238    1.4041 C.ar      1 <0>        -0.7079
      7 S1         -0.0795    1.4504   -0.0404 S.o2      1 <0>         2.7042
      8 O1         -0.0696    0.0296   -0.0640 O.2       1 <0>        -1.0707
      9 O2          1.1145    2.2208   -0.0518 O.2       1 <0>        -1.0449
     10 C7         -1.2315    4.8425    3.7313 C.2       1 <0>        -0.0047
     11 C8         -1.9455    5.1659    4.8497 C.2       1 <0>        -0.2190
     12 C9         -2.9027    4.2050    5.3941 C.2       1 <0>         0.5400
     13 O3         -3.5400    4.4925    6.3916 O.2       1 <0>        -0.5667
     14 N1         -3.0900    3.0083    4.8108 N.am      1 <0>        -0.6344
     15 H1         -3.7511    2.3695    5.2045 H         1 <0>         0.4092
     16 C10        -0.2529    5.7952    3.1552 C.2       1 <0>         0.4876
     17 O4         -0.1562    6.9161    3.6115 O.co2     1 <0>        -0.6193
     18 H2         -2.0561    0.0830    1.5074 H         1 <0>         0.1347
     19 H3         -3.3134    0.7119    3.5189 H         1 <0>         0.1236
     20 H4         -0.0233    3.8209    1.5309 H         1 <0>         0.2066
     21 H5         -1.8037    6.1238    5.3280 H         1 <0>         0.1553
     22 O5         -0.8986    1.8997   -1.2419 O.3       1 <0>        -1.0851
     23 O6          0.5288    5.4175    2.1258 O.co2     1 <0>        -0.7077
@<TRIPOS>BOND
     1    1    6 ar
     2    1    2 ar
     3    1   18 1
     4    2    3 ar
     5    2   19 1
     6    3   14 1
     7    3    4 ar
     8    4    5 ar
     9    4   10 1
    10    5    6 ar
    11    5   20 1
    12    6    7 1
    13    7    8 2
    14    7    9 2
    15    7   22 1
    16   10   11 2
    17   10   16 1
    18   11   12 1
    19   11   21 1
    20   12   13 2
    21   12   14 am
    22   14   15 1
    23   16   17 2
    24   16   23 1
@<TRIPOS>MOLECULE
ZINC31809939
   46    48     0     0     0
SMALL
USER_CHARGES
4-[[3-[(1S)-2-hydroxy-1-morpholino-2-oxo-ethyl]-1H-indol-5-yl]amino]-4-oxo-butanoic acid
@<TRIPOS>ATOM
      1 C1          0.5927   -6.2141   -0.8733 C.ar      1 <0>        -0.0984
      2 C2         -0.1969   -7.3414   -0.9101 C.ar      1 <0>        -0.1260
      3 C3         -1.5793   -7.2261   -0.8101 C.ar      1 <0>         0.0741
      4 C4         -2.1606   -5.9534   -0.6649 C.ar      1 <0>        -0.0771
      5 C5         -1.3511   -4.8169   -0.6224 C.ar      1 <0>        -0.0841
      6 C6          0.0209   -4.9520   -0.7239 C.ar      1 <0>         0.1209
      7 N1          0.8394   -3.8152   -0.6820 N.am      1 <0>        -0.6869
      8 C7          2.0657   -3.8878   -0.1276 C.2       1 <0>         0.5129
      9 O1          2.4292   -4.9134    0.4084 O.2       1 <0>        -0.5372
     10 C8          2.9853   -2.6949   -0.1738 C.3       1 <0>        -0.1179
     11 C9          4.3039   -3.0402    0.5212 C.3       1 <0>        -0.1402
     12 C10         5.2236   -1.8472    0.4751 C.2       1 <0>         0.4613
     13 O2          4.8615   -0.8256   -0.0589 O.co2     1 <0>        -0.6438
     14 O3          6.4449   -1.9195    1.0272 O.co2     1 <0>        -0.7780
     15 C11        -3.6069   -6.1746   -0.5885 C.2       1 <0>        -0.1344
     16 C12        -3.8076   -7.4982   -0.6867 C.2       1 <0>         0.0689
     17 N2         -2.6087   -8.1435   -0.8196 N.pl3     1 <0>        -0.6135
     18 H1         -2.3885   -9.2162   -0.9242 H         1 <0>         0.4308
     19 C13        -4.6682   -5.1165   -0.4298 C.3       1 <0>         0.1186
     20 H2         -4.3066   -4.3126    0.2283 H         1 <0>         0.0427
     21 C14        -5.0270   -4.5581   -1.7828 C.2       1 <0>         0.4811
     22 O4         -5.9179   -5.0597   -2.4265 O.co2     1 <0>        -0.6241
     23 O5         -4.3567   -3.5033   -2.2727 O.co2     1 <0>        -0.7620
     24 N3         -5.8621   -5.7092    0.1876 N.3       1 <0>        -0.5109
     25 C15        -6.9534   -4.7279    0.2728 C.3       1 <0>         0.0183
     26 C16        -8.1936   -5.4021    0.8656 C.3       1 <0>         0.0682
     27 O6         -7.8640   -5.9575    2.1416 O.3       1 <0>        -0.3943
     28 C17        -6.8051   -6.9177    2.0955 C.3       1 <0>         0.0676
     29 C18        -5.5509   -6.2589    1.5151 C.3       1 <0>         0.0097
     30 H3          1.6653   -6.3092   -0.9566 H         1 <0>         0.1328
     31 H4          0.2570   -8.3150   -1.0218 H         1 <0>         0.1147
     32 H5         -1.7939   -3.8382   -0.5114 H         1 <0>         0.1270
     33 H6          0.4810   -2.8636   -1.1016 H         1 <0>         0.4336
     34 H7          3.1829   -2.4246   -1.2216 H         1 <0>         0.0946
     35 H8          2.5110   -1.8461    0.3406 H         1 <0>         0.0938
     36 H9          4.1063   -3.3105    1.5690 H         1 <0>         0.0701
     37 H10         4.7783   -3.8889    0.0068 H         1 <0>         0.0698
     38 H11        -4.7728   -7.9822   -0.6640 H         1 <0>         0.1677
     39 H12        -6.6449   -3.8916    0.9173 H         1 <0>         0.0306
     40 H13        -7.1853   -4.3491   -0.7335 H         1 <0>         0.1040
     41 H14        -8.9947   -4.6575    0.9835 H         1 <0>         0.0919
     42 H15        -8.5332   -6.2025    0.1918 H         1 <0>         0.0587
     43 H16        -6.5941   -7.2800    3.1125 H         1 <0>         0.0894
     44 H17        -7.1048   -7.7638    1.4597 H         1 <0>         0.0547
     45 H18        -4.7501   -7.0075    1.4234 H         1 <0>         0.0869
     46 H19        -5.2197   -5.4473    2.1796 H         1 <0>         0.0338
@<TRIPOS>BOND
     1    1    6 ar
     2    1    2 ar
     3    1   30 1
     4    2    3 ar
     5    2   31 1
     6    3   17 1
     7    3    4 ar
     8    4    5 ar
     9    4   15 1
    10    5    6 ar
    11    5   32 1
    12    6    7 1
    13    7    8 am
    14    7   33 1
    15    8    9 2
    16    8   10 1
    17   10   11 1
    18   10   34 1
    19   10   35 1
    20   11   12 1
    21   11   36 1
    22   11   37 1
    23   12   13 2
    24   12   14 1
    25   15   16 2
    26   15   19 1
    27   16   17 1
    28   16   38 1
    29   17   18 1
    30   19   20 1
    31   19   21 1
    32   19   24 1
    33   21   22 2
    34   21   23 1
    35   24   29 1
    36   24   25 1
    37   25   26 1
    38   25   39 1
    39   25   40 1
    40   26   27 1
    41   26   41 1
    42   26   42 1
    43   27   28 1
    44   28   29 1
    45   28   43 1
    46   28   44 1
    47   29   45 1
    48   29   46 1
@<TRIPOS>MOLECULE
ZINC37731770
   24    25     0     0     0
SMALL
USER_CHARGES

@<TRIPOS>ATOM
      1 C1         -0.0184    1.5028    0.0103 C.3       1 <0>        -0.0671
      2 C2          0.0021   -0.0041    0.0020 C.2       1 <0>         0.1105
      3 C3          0.0080   -0.8190   -1.1377 C.2       1 <0>        -0.4072
      4 C4          0.0283   -2.1149   -0.7282 C.2       1 <0>         0.4080
      5 O1          0.0349   -2.1206    0.6156 O.3       1 <0>        -0.1749
      6 N1          0.0230   -0.7745    1.0551 N.2       1 <0>        -0.4051
      7 N2          0.0396   -3.2283   -1.5477 N.2       1 <0>        -0.9889
      8 S1          0.0643   -4.7451   -0.8836 S.o2      1 <0>         2.6452
      9 O2          1.3151   -4.8787   -0.2226 O.2       1 <0>        -1.0446
     10 O3         -1.1753   -4.9135   -0.2096 O.2       1 <0>        -0.9670
     11 C5          0.0735   -5.8973   -2.2165 C.2       1 <0>        -0.4219
     12 C6         -0.9366   -6.0868   -3.1420 C.2       1 <0>        -0.1622
     13 C7         -0.5061   -7.1048   -4.0247 C.2       1 <0>         0.0562
     14 N3          0.6802   -7.4913   -3.6457 N.2       1 <0>        -0.3044
     15 N4          1.0637   -6.7481   -2.5239 N.pl3     1 <0>        -0.4307
     16 H1          1.9040   -6.8351   -2.0472 H         1 <0>         0.4353
     17 C8         -2.2170   -5.3664   -3.1974 C.2       1 <0>         0.5332
     18 O4         -3.0302   -5.6307   -4.0726 O.co2     1 <0>        -0.7069
     19 O5         -2.4693   -4.5026   -2.3684 O.co2     1 <0>        -0.6333
     20 H2          1.0042    1.8801    0.0026 H         1 <0>         0.0698
     21 H3         -0.5455    1.8639   -0.8728 H         1 <0>         0.0731
     22 H4         -0.5286    1.8543    0.9071 H         1 <0>         0.0633
     23 H5         -0.0021   -0.4773   -2.1621 H         1 <0>         0.1313
     24 H6         -1.0623   -7.4938   -4.8647 H         1 <0>         0.1885
@<TRIPOS>BOND
     1    1    2 1
     2    1   20 1
     3    1   21 1
     4    1   22 1
     5    2    6 2
     6    2    3 1
     7    3    4 2
     8    3   23 1
     9    4    5 1
    10    4    7 1
    11    5    6 1
    12    7    8 1
    13    8    9 2
    14    8   10 2
    15    8   11 1
    16   11   15 1
    17   11   12 2
    18   12   13 1
    19   12   17 1
    20   13   14 2
    21   13   24 1
    22   14   15 1
    23   15   16 1
    24   17   18 2
    25   17   19 1
@<TRIPOS>MOLECULE
ZINC43432995
   41    41     0     0     0
SMALL
USER_CHARGES

@<TRIPOS>ATOM
      1 C1         -0.0187    1.5258    0.0104 C.3       1 <0>        -0.1387
      2 C2          0.0021   -0.0041    0.0020 C.3       1 <0>        -0.0851
      3 C3          0.7182   -0.4975   -1.2568 C.3       1 <0>        -0.1370
      4 C4          0.7421   -0.5109    1.2415 C.3       1 <0>         0.0825
      5 H1          0.8346   -1.5958    1.1912 H         1 <0>         0.0705
      6 C5          2.1149    0.1084    1.2952 C.2       1 <0>         0.5010
      7 O1          2.2842    1.1661    1.8775 O.co2     1 <0>        -0.6854
      8 O2          3.0563   -0.4483    0.7564 O.co2     1 <0>        -0.7093
      9 N1         -0.0083   -0.1401    2.4439 N.am      1 <0>        -0.7153
     10 C6          0.1312   -0.8607    3.5743 C.2       1 <0>         0.5262
     11 O3          0.8780   -1.8161    3.5961 O.2       1 <0>        -0.5165
     12 C7         -0.6406   -0.4792    4.8111 C.3       1 <0>        -0.1032
     13 C8         -0.3028   -1.4514    5.9432 C.3       1 <0>        -0.1071
     14 C9         -0.6813   -2.8734    5.5241 C.3       1 <0>        -0.1025
     15 C10        -2.1812   -2.9359    5.2288 C.3       1 <0>        -0.1190
     16 C11        -2.9649   -2.5487    6.4845 C.3       1 <0>        -0.1114
     17 C12        -2.5864   -1.1267    6.9035 C.3       1 <0>        -0.1185
     18 C13        -1.0865   -1.0642    7.1989 C.3       1 <0>        -0.0911
     19 C14         1.1745   -1.3899    6.2341 C.2       1 <0>         0.5093
     20 O4          1.8909   -0.6381    5.5953 O.co2     1 <0>        -0.6680
     21 O5          1.6534   -2.0919    7.1084 O.co2     1 <0>        -0.7214
     22 H2          1.0039    1.9031    0.0027 H         1 <0>         0.0709
     23 H3         -0.5459    1.8868   -0.8726 H         1 <0>         0.0351
     24 H4         -0.5289    1.8773    0.9072 H         1 <0>         0.0480
     25 H5         -1.0205   -0.3814    0.0098 H         1 <0>         0.0538
     26 H6          1.7408   -0.1202   -1.2645 H         1 <0>         0.0714
     27 H7          0.7330   -1.5874   -1.2628 H         1 <0>         0.0480
     28 H8          0.1910   -0.1364   -2.1398 H         1 <0>         0.0387
     29 H9         -0.6055    0.6240    2.4265 H         1 <0>         0.3801
     30 H10        -0.3710    0.5339    5.1097 H         1 <0>         0.0775
     31 H11        -1.7092   -0.5237    4.6007 H         1 <0>         0.0629
     32 H12        -0.1230   -3.1493    4.6296 H         1 <0>         0.0843
     33 H13        -0.4407   -3.5661    6.3306 H         1 <0>         0.0527
     34 H14        -2.4219   -2.2433    4.4223 H         1 <0>         0.0549
     35 H15        -2.4508   -3.9490    4.9302 H         1 <0>         0.0465
     36 H16        -4.0334   -2.5932    6.2740 H         1 <0>         0.0451
     37 H17        -2.7242   -3.2413    7.2910 H         1 <0>         0.0553
     38 H18        -2.8271   -0.4340    6.0970 H         1 <0>         0.0580
     39 H19        -3.1447   -0.8508    7.7981 H         1 <0>         0.0468
     40 H20        -0.8459   -1.7568    8.0054 H         1 <0>         0.0617
     41 H21        -0.8169   -0.0511    7.4974 H         1 <0>         0.0486
@<TRIPOS>BOND
     1    1    2 1
     2    1   22 1
     3    1   23 1
     4    1   24 1
     5    2    3 1
     6    2    4 1
     7    2   25 1
     8    3   26 1
     9    3   27 1
    10    3   28 1
    11    4    5 1
    12    4    6 1
    13    4    9 1
    14    6    7 2
    15    6    8 1
    16    9   10 am
    17    9   29 1
    18   10   11 2
    19   10   12 1
    20   12   13 1
    21   12   30 1
    22   12   31 1
    23   13   18 1
    24   13   14 1
    25   13   19 1
    26   14   15 1
    27   14   32 1
    28   14   33 1
    29   15   16 1
    30   15   34 1
    31   15   35 1
    32   16   17 1
    33   16   36 1
    34   16   37 1
    35   17   18 1
    36   17   38 1
    37   17   39 1
    38   18   40 1
    39   18   41 1
    40   19   20 2
    41   19   21 1
@<TRIPOS>MOLECULE
ZINC37431302
   36    36     0     0     0
SMALL
USER_CHARGES

@<TRIPOS>ATOM
      1 C1         -0.0127    1.0858    0.0080 C.3       1 <0>        -0.1119
      2 C2         -0.7416    1.5850   -1.2129 C.ar      1 <0>         0.2568
      3 C3         -0.0474    1.8319   -2.4017 C.ar      1 <0>        -0.3355
      4 C4         -0.7796    2.2988   -3.5153 C.ar      1 <0>         0.2324
      5 N1         -2.0899    2.4830   -3.3879 N.ar      1 <0>        -0.6020
      6 C5         -2.6999    2.2347   -2.2412 C.ar      1 <0>         0.5655
      7 O1         -4.0351    2.4351   -2.1528 O.3       1 <0>        -0.6917
      8 N2         -2.0458    1.7904   -1.1769 N.ar      1 <0>        -0.5947
      9 S1          0.0287    2.6316   -5.0451 S.3       1 <0>        -0.1019
     10 C6         -1.3082    3.1939   -6.1346 C.3       1 <0>        -0.1259
     11 C7          1.4055    1.6118   -2.4894 C.2       1 <0>         0.6005
     12 O2          1.8367    0.5269   -2.8308 O.2       1 <0>        -0.5519
     13 N3          2.2579    2.6123   -2.1915 N.am      1 <0>        -0.6937
     14 C8          3.7038    2.3933   -2.2788 C.3       1 <0>         0.0835
     15 H1          3.9197    1.7188   -3.1074 H         1 <0>         0.0808
     16 C9          4.4091    3.7307   -2.5129 C.3       1 <0>        -0.0890
     17 C10         4.0013    4.2904   -3.8773 C.3       1 <0>        -0.0713
     18 S2          4.8375    5.8761   -4.1548 S.3       1 <0>        -0.2856
     19 C11         4.2554    6.3986   -5.7915 C.3       1 <0>        -0.1187
     20 C12         4.1980    1.7831   -0.9926 C.2       1 <0>         0.4934
     21 O3          3.4151    1.5526   -0.0868 O.co2     1 <0>        -0.6758
     22 O4          5.3808    1.5200   -0.8576 O.co2     1 <0>        -0.7066
     23 H2          0.0021   -0.0041    0.0020 H         1 <0>         0.0719
     24 H3          1.0099    1.4631    0.0003 H         1 <0>         0.1020
     25 H4         -0.5229    1.4373    0.9048 H         1 <0>         0.0675
     26 H5         -0.9012    3.4272   -7.1186 H         1 <0>         0.0905
     27 H6         -2.0561    2.4066   -6.2281 H         1 <0>         0.0817
     28 H7         -1.7705    4.0859   -5.7119 H         1 <0>         0.0813
     29 H8          1.9140    3.4775   -1.9193 H         1 <0>         0.3887
     30 H9          4.1225    4.4343   -1.7312 H         1 <0>         0.0680
     31 H10         5.4885    3.5813   -2.4894 H         1 <0>         0.0871
     32 H11         4.2879    3.5868   -4.6589 H         1 <0>         0.0789
     33 H12         2.9219    4.4398   -3.9008 H         1 <0>         0.0862
     34 H13         3.1706    6.5037   -5.7748 H         1 <0>         0.0747
     35 H14         4.7092    7.3552   -6.0502 H         1 <0>         0.0930
     36 H15         4.5366    5.6507   -6.5329 H         1 <0>         0.0719
@<TRIPOS>BOND
     1    1   23 1
     2    1   24 1
     3    1   25 1
     4    1    2 1
     5    2    8 ar
     6    2    3 ar
     7    3   11 1
     8    3    4 ar
     9    4    9 1
    10    4    5 ar
    11    5    6 ar
    12    6    7 1
    13    6    8 ar
    14    9   10 1
    15   10   26 1
    16   10   27 1
    17   10   28 1
    18   11   12 2
    19   11   13 am
    20   13   14 1
    21   13   29 1
    22   14   15 1
    23   14   16 1
    24   14   20 1
    25   16   17 1
    26   16   30 1
    27   16   31 1
    28   17   18 1
    29   17   32 1
    30   17   33 1
    31   18   19 1
    32   19   34 1
    33   19   35 1
    34   19   36 1
    35   20   21 2
    36   20   22 1
@<TRIPOS>MOLECULE
ZINC05376948
   23    24     0     0     0
SMALL
USER_CHARGES
3-carboxynorbornane-2-carbothioate
@<TRIPOS>ATOM
      1 C1         -0.3990    1.0770    0.8917 C.3       1 <0>        -0.1198
      2 C2          0.7650    1.2540   -0.1100 C.3       1 <0>        -0.1154
      3 C3          0.0725    1.5609   -1.4729 C.3       1 <0>        -0.0937
      4 H1          0.6769    1.3896   -2.3637 H         1 <0>         0.0832
      5 C4         -1.2281    0.6925   -1.3396 C.3       1 <0>        -0.1160
      6 C5         -1.6868    1.3233    0.0426 C.3       1 <0>        -0.0808
      7 H2         -2.6193    0.9422    0.4589 H         1 <0>         0.0862
      8 C6         -1.6649    2.8442   -0.3007 C.3       1 <0>        -0.1062
      9 H3         -1.4758    3.4335    0.5965 H         1 <0>         0.0589
     10 C7         -0.4998    3.0015   -1.3043 C.3       1 <0>        -0.0884
     11 H4          0.2181    3.6073   -0.9614 H         1 <0>         0.0678
     12 C8         -1.0095    3.5221   -2.6235 C.2       1 <0>         0.4956
     13 O1         -1.4618    2.7527   -3.4454 O.2       1 <0>        -0.5214
     14 S1         -0.9502    5.1991   -2.9625 S.3       1 <0>        -0.9762
     15 C9         -2.9665    3.2578   -0.9377 C.2       1 <0>         0.4686
     16 O2         -3.6495    2.4375   -1.5041 O.co2     1 <0>        -0.6450
     17 H5         -0.3864    0.0727    1.3152 H         1 <0>         0.0505
     18 H6         -0.3368    1.8246    1.6824 H         1 <0>         0.0537
     19 H7          1.3498    0.3367   -0.1790 H         1 <0>         0.0498
     20 H8          1.4006    2.0873    0.1894 H         1 <0>         0.0557
     21 H9         -1.9425    0.9014   -2.1358 H         1 <0>         0.0985
     22 H10        -1.0034   -0.3716   -1.2671 H         1 <0>         0.0445
     23 O3         -3.3672    4.5374   -0.8759 O.co2     1 <0>        -0.7500
@<TRIPOS>BOND
     1    1    6 1
     2    1    2 1
     3    1   17 1
     4    1   18 1
     5    2    3 1
     6    2   19 1
     7    2   20 1
     8    3    4 1
     9    3   10 1
    10    3    5 1
    11    5    6 1
    12    5   21 1
    13    5   22 1
    14    6    7 1
    15    6    8 1
    16    8    9 1
    17    8   10 1
    18    8   15 1
    19   10   11 1
    20   10   12 1
    21   12   13 2
    22   12   14 1
    23   15   16 2
    24   15   23 1
@<TRIPOS>MOLECULE
ZINC20593420
   32    34     0     0     0
SMALL
USER_CHARGES
5-(indan-5-ylsulfamoyl)furan-2-carboxylic acid
@<TRIPOS>ATOM
      1 C1          2.4005    0.0207   -0.0192 C.ar      1 <0>        -0.2026
      2 C2          1.2113   -0.6797   -0.0126 C.ar      1 <0>        -0.0800
      3 C3          0.0021   -0.0041    0.0020 C.ar      1 <0>        -0.1741
      4 C4         -0.0167    1.3791    0.0096 C.ar      1 <0>        -0.0915
      5 C5          1.1727    2.0854    0.0021 C.ar      1 <0>        -0.1433
      6 C6          2.3851    1.4094   -0.0115 C.ar      1 <0>         0.2281
      7 N1          3.5855    2.1235   -0.0183 N.2       1 <0>        -1.0662
      8 S1          4.8064    1.6809   -1.0458 S.o2      1 <0>         2.6091
      9 O1          5.8674    2.6027   -0.8368 O.2       1 <0>        -0.9935
     10 O2          4.9753    0.2780   -0.8953 O.2       1 <0>        -1.0283
     11 C7          4.2262    1.9448   -2.6885 C.2       1 <0>        -0.5549
     12 C8          4.3607    3.0884   -3.3965 C.2       1 <0>        -0.1378
     13 C9          3.7637    2.8724   -4.6477 C.2       1 <0>        -0.2129
     14 C10         3.2888    1.5912   -4.6403 C.2       1 <0>        -0.0098
     15 O3          3.5847    1.0435   -3.4431 O.3       1 <0>        -0.0944
     16 C11         2.5863    0.9271   -5.7407 C.2       1 <0>         0.5297
     17 O4          2.3802    1.5252   -6.7795 O.co2     1 <0>        -0.6159
     18 O5          2.1680   -0.3478   -5.6020 O.co2     1 <0>        -0.7330
     19 C12        -1.4483    1.8711    0.0198 C.3       1 <0>        -0.0784
     20 C13        -2.2967    0.6590   -0.4144 C.3       1 <0>        -0.1140
     21 C14        -1.4159   -0.5344    0.0121 C.3       1 <0>        -0.0621
     22 H1          3.3410   -0.5101   -0.0306 H         1 <0>         0.1422
     23 H2          1.2236   -1.7596   -0.0186 H         1 <0>         0.1003
     24 H3          1.1580    3.1653    0.0077 H         1 <0>         0.1061
     25 H4          4.8377    3.9977   -3.0618 H         1 <0>         0.1491
     26 H5          3.6932    3.5813   -5.4594 H         1 <0>         0.1470
     27 H6         -1.7132    2.2073    1.0331 H         1 <0>         0.0655
     28 H7         -1.5527    2.7101   -0.6839 H         1 <0>         0.0636
     29 H8         -3.2648    0.6833    0.1073 H         1 <0>         0.0619
     30 H9         -2.4646    0.6992   -1.5008 H         1 <0>         0.0678
     31 H10        -1.4992   -1.3720   -0.6961 H         1 <0>         0.0612
     32 H11        -1.6698   -0.8832    1.0240 H         1 <0>         0.0611
@<TRIPOS>BOND
     1    1    6 ar
     2    1    2 ar
     3    1   22 1
     4    2    3 ar
     5    2   23 1
     6    3   21 1
     7    3    4 ar
     8    4    5 ar
     9    4   19 1
    10    5    6 ar
    11    5   24 1
    12    6    7 1
    13    7    8 1
    14    8    9 2
    15    8   10 2
    16    8   11 1
    17   11   15 1
    18   11   12 2
    19   12   13 1
    20   12   25 1
    21   13   14 2
    22   13   26 1
    23   14   15 1
    24   14   16 1
    25   16   17 2
    26   16   18 1
    27   19   20 1
    28   19   27 1
    29   19   28 1
    30   20   21 1
    31   20   29 1
    32   20   30 1
    33   21   31 1
    34   21   32 1
@<TRIPOS>MOLECULE
ZINC31158446
   42    43     0     0     0
SMALL
USER_CHARGES

@<TRIPOS>ATOM
      1 C1         -0.2413    1.0598    0.0315 C.3       1 <0>        -0.1549
      2 C2         -0.2207   -0.4083   -0.3989 C.3       1 <0>        -0.0848
      3 H1         -1.2476   -0.7454   -0.5402 H         1 <0>         0.0681
      4 C3          0.5138   -0.5179   -1.7203 C.3       1 <0>        -0.1021
      5 C4          1.8979    0.1223   -1.6451 C.3       1 <0>        -0.0890
      6 C5          2.9198   -0.9465   -1.2266 C.3       1 <0>         0.0741
      7 C6          2.8577   -1.3796    0.2471 C.3       1 <0>        -0.0400
      8 H2          3.7876   -1.6418    0.7517 H         1 <0>         0.1102
      9 O1          2.4037   -2.2153   -0.8195 O.3       1 <0>        -0.3284
     10 C7          1.8018   -0.6625    1.1029 C.3       1 <0>        -0.0751
     11 H3          1.8519    0.4110    0.9204 H         1 <0>         0.0857
     12 C8          0.4141   -1.2304    0.7051 C.3       1 <0>        -0.0760
     13 H4          0.5251   -2.2597    0.3640 H         1 <0>         0.0735
     14 C9         -0.4983   -1.2079    1.9331 C.3       1 <0>        -0.0898
     15 C10        -1.8153   -1.9132    1.6030 C.3       1 <0>        -0.1836
     16 C11        -2.7139   -1.8911    2.8126 C.2       1 <0>         0.4901
     17 O2         -2.3360   -1.3604    3.8431 O.co2     1 <0>        -0.7030
     18 O3         -3.8188   -2.4039    2.7606 O.co2     1 <0>        -0.7163
     19 C12         2.0660   -0.9431    2.5836 C.3       1 <0>        -0.1427
     20 C13         4.2753   -0.9007   -1.9348 C.3       1 <0>        -0.1413
     21 H5          4.7047    0.0960   -1.8335 H         1 <0>         0.0756
     22 C14         5.2162   -1.9281   -1.3023 C.3       1 <0>        -0.1257
     23 C15         4.0899   -1.2217   -3.3955 C.2       1 <0>         0.5014
     24 O4          2.9769   -1.4646   -3.8298 O.co2     1 <0>        -0.6799
     25 O5          5.0530   -1.2386   -4.1430 O.co2     1 <0>        -0.7102
     26 H6          0.7776    1.3969    0.2222 H         1 <0>         0.0589
     27 H7         -0.6818    1.6647   -0.7611 H         1 <0>         0.0442
     28 H8         -0.8344    1.1637    0.9401 H         1 <0>         0.0563
     29 H9          0.6217   -1.5706   -1.9817 H         1 <0>         0.0746
     30 H10        -0.0685   -0.0177   -2.4942 H         1 <0>         0.0491
     31 H11         2.1683    0.5228   -2.6221 H         1 <0>         0.0739
     32 H12         1.8886    0.9263   -0.9092 H         1 <0>         0.0679
     33 H13        -0.0078   -1.7223    2.7596 H         1 <0>         0.0618
     34 H14        -0.7004   -0.1751    2.2167 H         1 <0>         0.0576
     35 H15        -2.3057   -1.3989    0.7766 H         1 <0>         0.0564
     36 H16        -1.6131   -2.9461    1.3194 H         1 <0>         0.0518
     37 H17         3.0579   -0.5789    2.8511 H         1 <0>         0.0434
     38 H18         1.3164   -0.4338    3.1893 H         1 <0>         0.0675
     39 H19         2.0118   -2.0164    2.7653 H         1 <0>         0.0533
     40 H20         4.7400   -2.9086   -1.3076 H         1 <0>         0.0515
     41 H21         6.1436   -1.9715   -1.8734 H         1 <0>         0.0568
     42 H22         5.4353   -1.6362   -0.2752 H         1 <0>         0.0388
@<TRIPOS>BOND
     1    1    2 1
     2    1   26 1
     3    1   27 1
     4    1   28 1
     5    2    3 1
     6    2   12 1
     7    2    4 1
     8    4    5 1
     9    4   29 1
    10    4   30 1
    11    5    6 1
    12    5   31 1
    13    5   32 1
    14    6    9 1
    15    6    7 1
    16    6   20 1
    17    7    8 1
    18    7    9 1
    19    7   10 1
    20   10   11 1
    21   10   12 1
    22   10   19 1
    23   12   13 1
    24   12   14 1
    25   14   15 1
    26   14   33 1
    27   14   34 1
    28   15   16 1
    29   15   35 1
    30   15   36 1
    31   16   17 2
    32   16   18 1
    33   19   37 1
    34   19   38 1
    35   19   39 1
    36   20   21 1
    37   20   22 1
    38   20   23 1
    39   22   40 1
    40   22   41 1
    41   22   42 1
    42   23   24 2
    43   23   25 1
@<TRIPOS>MOLECULE
ZINC45071097
   30    33     0     0     0
SMALL
USER_CHARGES

@<TRIPOS>ATOM
      1 C1         -0.0184    1.5043    0.0103 C.2       1 <0>        -0.1366
      2 C2          1.1750    2.0257    0.0017 C.2       1 <0>        -0.1581
      3 C3          2.2589    0.9821   -0.0327 C.3       1 <0>        -0.0352
      4 H1          2.8518    1.0758   -0.9573 H         1 <0>         0.0529
      5 C4          1.5159   -0.3680   -0.0083 C.3       1 <0>        -0.0957
      6 C5          0.0021   -0.0041    0.0020 C.3       1 <0>        -0.0531
      7 H2         -0.5528   -0.4443   -0.8214 H         1 <0>         0.0677
      8 C6         -0.4997   -0.4895    1.4206 C.3       1 <0>        -0.1152
      9 C7          0.7360   -0.1358    2.1780 C.3       1 <0>        -0.1070
     10 H3          0.9292    0.8686    1.7795 H         1 <0>         0.1081
     11 C8          1.8128   -0.9389    1.3673 C.3       1 <0>        -0.1100
     12 C9          3.0572   -0.2756    1.9977 C.3       1 <0>        -0.0388
     13 H4          3.9798   -0.9004    1.9457 H         1 <0>         0.0621
     14 C10         3.1703    1.0489    1.2064 C.3       1 <0>        -0.1365
     15 C11         2.9414    2.2669    2.0510 C.2       1 <0>         0.5077
     16 O1          3.1369    2.2204    3.2535 O.co2     1 <0>        -0.6848
     17 O2          2.5599    3.3036    1.5351 O.co2     1 <0>        -0.6902
     18 C12         2.5736   -0.0461    3.4332 C.2       1 <0>        -0.1071
     19 C13         1.2388   -0.0150    3.5181 C.2       1 <0>        -0.1539
     20 C14        -1.6913    0.2903    1.8977 C.2       1 <0>         0.5046
     21 O3         -2.6035   -0.2803    2.4710 O.co2     1 <0>        -0.7200
     22 O4         -1.7464    1.4940    1.7117 O.co2     1 <0>        -0.6792
     23 H5         -0.9178    2.1019    0.0064 H         1 <0>         0.1318
     24 H6          1.3486    3.0919   -0.0009 H         1 <0>         0.1364
     25 H7          1.7920   -1.0347   -0.8251 H         1 <0>         0.0662
     26 H8         -0.6822   -1.5609    1.4319 H         1 <0>         0.0537
     27 H9          1.7675   -2.0374    1.4310 H         1 <0>         0.0755
     28 H10         4.2216    1.1197    0.8310 H         1 <0>         0.0393
     29 H11         3.2300    0.0767    4.2909 H         1 <0>         0.1054
     30 H12         0.6595    0.0823    4.4292 H         1 <0>         0.1101
@<TRIPOS>BOND
     1    1    6 1
     2    1    2 2
     3    1   23 1
     4    2    3 1
     5    2   24 1
     6    3    4 1
     7    3   14 1
     8    3    5 1
     9    5   11 1
    10    5    6 1
    11    5   25 1
    12    6    7 1
    13    6    8 1
    14    8    9 1
    15    8   20 1
    16    8   26 1
    17    9   10 1
    18    9   19 1
    19    9   11 1
    20   11   12 1
    21   11   27 1
    22   12   13 1
    23   12   14 1
    24   12   18 1
    25   14   15 1
    26   14   28 1
    27   15   16 2
    28   15   17 1
    29   18   19 2
    30   18   29 1
    31   19   30 1
    32   20   21 2
    33   20   22 1
@<TRIPOS>MOLECULE
ZINC47251737
   38    41     0     0     0
SMALL
USER_CHARGES

@<TRIPOS>ATOM
      1 C1         -0.0167    1.3772    0.0096 C.ar      1 <0>        -0.0758
      2 C2          1.1687    2.0873    0.0021 C.ar      1 <0>        -0.3041
      3 C3          2.3836    1.4133   -0.0131 C.ar      1 <0>         0.2698
      4 C4          2.4054    0.0254   -0.0207 C.ar      1 <0>        -0.1901
      5 C5          1.2136   -0.6840   -0.0131 C.ar      1 <0>         0.2239
      6 C6          0.0021   -0.0041    0.0020 C.ar      1 <0>        -0.2511
      7 N1          1.2314   -2.0848   -0.0212 N.am      1 <0>        -0.4669
      8 C7          2.3686   -2.8879   -0.0307 C.2       1 <0>         0.1556
      9 C8          1.9663   -4.1629   -0.0355 C.2       1 <0>         0.1289
     10 N2          0.5750   -4.1684   -0.0290 N.am      1 <0>        -0.5015
     11 C9          0.1511   -2.8897   -0.0153 C.2       1 <0>         0.5892
     12 O1         -1.0108   -2.5237   -0.0019 O.2       1 <0>        -0.6613
     13 C10        -0.2803   -5.3579   -0.0316 C.3       1 <0>         0.1134
     14 C11         0.3976   -6.7158    0.1617 C.3       1 <0>        -0.1935
     15 C12        -0.1468   -6.3213   -1.2126 C.3       1 <0>        -0.2034
     16 O2          2.7736   -5.2595   -0.0454 O.3       1 <0>        -0.7926
     17 O3          3.6593   -2.4528   -0.0345 O.3       1 <0>        -0.7701
     18 N3          3.5815    2.1315   -0.0211 N.2       1 <0>        -1.0695
     19 S1          3.5543    3.7873   -0.0126 S.o2      1 <0>         2.6012
     20 O4          2.9848    4.1905   -1.2504 O.2       1 <0>        -1.0331
     21 O5          3.0090    4.1780    1.2401 O.2       1 <0>        -1.0336
     22 C13         5.2287    4.3359   -0.0261 C.2       1 <0>        -0.6332
     23 C14         6.0279    4.6122   -1.0855 C.2       1 <0>        -0.0643
     24 C15         7.3238    5.0343   -0.8554 C.2       1 <0>        -0.1725
     25 C16         7.7572    5.1595    0.4228 C.2       1 <0>        -0.1911
     26 S2          6.3103    4.6796    1.3520 S.3       1 <0>         0.1323
     27 H1         -0.9598    1.9032    0.0259 H         1 <0>         0.0876
     28 H2          1.1507    3.1671    0.0077 H         1 <0>         0.0794
     29 H3          3.3484   -0.5009   -0.0328 H         1 <0>         0.1657
     30 H4         -0.9262   -0.5561    0.0079 H         1 <0>         0.1330
     31 H5         -1.2725   -5.2244    0.3994 H         1 <0>         0.0994
     32 H6          1.4799   -6.7242    0.2908 H         1 <0>         0.1492
     33 H7         -0.1486   -7.4760    0.7202 H         1 <0>         0.0638
     34 H8         -1.0512   -6.8220   -1.5584 H         1 <0>         0.0706
     35 H9          0.5773   -6.0702   -1.9877 H         1 <0>         0.0902
     36 H10         5.6577    4.5038   -2.0942 H         1 <0>         0.1423
     37 H11         7.9814    5.2607   -1.6817 H         1 <0>         0.1301
     38 H12         8.7254    5.4723    0.7852 H         1 <0>         0.1821
@<TRIPOS>BOND
     1    1    6 ar
     2    1    2 ar
     3    1   27 1
     4    2    3 ar
     5    2   28 1
     6    3    4 ar
     7    3   18 1
     8    4    5 ar
     9    4   29 1
    10    5    6 ar
    11    5    7 1
    12    6   30 1
    13    7   11 am
    14    7    8 1
    15    8    9 2
    16    8   17 1
    17    9   10 1
    18    9   16 1
    19   10   11 am
    20   10   13 1
    21   11   12 2
    22   13   15 1
    23   13   14 1
    24   13   31 1
    25   14   15 1
    26   14   32 1
    27   14   33 1
    28   15   34 1
    29   15   35 1
    30   18   19 1
    31   19   20 2
    32   19   21 2
    33   19   22 1
    34   22   26 1
    35   22   23 2
    36   23   24 1
    37   23   36 1
    38   24   25 2
    39   24   37 1
    40   25   26 1
    41   25   38 1
@<TRIPOS>MOLECULE
ZINC01627612
   29    30     0     0     0
SMALL
USER_CHARGES
4-hydrazino-5-hydroxy-naphthalene-2,7-disulfonic acid
@<TRIPOS>ATOM
      1 C1         -1.8623    1.0561   -1.9354 C.ar      1 <0>        -0.0549
      2 C2         -2.6268    1.4490   -3.0479 C.ar      1 <0>        -0.0483
      3 C3         -3.5824    0.5870   -3.6134 C.ar      1 <0>        -0.0009
      4 C4         -4.3052    0.9898   -4.6943 C.ar      1 <0>        -0.6570
      5 C5         -4.1154    2.2494   -5.2559 C.ar      1 <0>        -0.0559
      6 C6         -3.1884    3.1219   -4.7304 C.ar      1 <0>         0.0676
      7 C7         -2.4264    2.7319   -3.6123 C.ar      1 <0>        -0.0619
      8 C8         -1.4667    3.5954   -3.0443 C.ar      1 <0>         0.1913
      9 C9         -0.7408    3.1747   -1.9496 C.ar      1 <0>        -0.1084
     10 C10        -0.9460    1.9113   -1.4036 C.ar      1 <0>        -0.6191
     11 S1          0.0006    1.4072   -0.0056 S.o2      1 <0>         2.7024
     12 O1          0.0147   -0.0137   -0.0155 O.2       1 <0>        -1.0568
     13 O2          1.1924    2.1810   -0.0217 O.2       1 <0>        -1.0586
     14 N1         -1.2542    4.8619   -3.5838 N.pl3     1 <0>        -0.5979
     15 N2         -0.4070    5.7353   -2.9630 N.3       1 <0>        -0.6036
     16 O3         -3.0104    4.3480   -5.2863 O.3       1 <0>        -0.4907
     17 S2         -5.4994   -0.1004   -5.3940 S.o2      1 <0>         2.7028
     18 O4         -5.8779   -1.0032   -4.3640 O.2       1 <0>        -1.0540
     19 O5         -6.4421    0.7143   -6.0773 O.2       1 <0>        -1.0597
     20 H1         -2.0046    0.0779   -1.5004 H         1 <0>         0.1415
     21 H2         -3.7432   -0.3937   -3.1905 H         1 <0>         0.1465
     22 H3         -4.7013    2.5456   -6.1134 H         1 <0>         0.1376
     23 H4         -0.0050    3.8328   -1.5116 H         1 <0>         0.1387
     24 H5         -1.7078    5.1236   -4.4002 H         1 <0>         0.4030
     25 H6         -0.3541    6.6078   -3.4671 H         1 <0>         0.3457
     26 H7         -0.6833    5.8877   -2.0046 H         1 <0>         0.3308
     27 H8         -2.3414    4.3701   -5.9842 H         1 <0>         0.3797
     28 O6         -0.7731    1.8259    1.2365 O.3       1 <0>        -1.0814
     29 O7         -4.7874   -0.9260   -6.4561 O.3       1 <0>        -1.0786
@<TRIPOS>BOND
     1    1   10 ar
     2    1    2 ar
     3    1   20 1
     4    2    7 ar
     5    2    3 ar
     6    3    4 ar
     7    3   21 1
     8    4    5 ar
     9    4   17 1
    10    5    6 ar
    11    5   22 1
    12    6    7 ar
    13    6   16 1
    14    7    8 ar
    15    8    9 ar
    16    8   14 1
    17    9   10 ar
    18    9   23 1
    19   10   11 1
    20   11   12 2
    21   11   13 2
    22   11   28 1
    23   14   15 1
    24   14   24 1
    25   15   25 1
    26   15   26 1
    27   16   27 1
    28   17   18 2
    29   17   19 2
    30   17   29 1
@<TRIPOS>MOLECULE
ZINC37366619
   36    37     0     0     0
SMALL
USER_CHARGES

@<TRIPOS>ATOM
      1 C1         -0.0187    1.5258    0.0104 C.3       1 <0>        -0.1497
      2 C2          0.0021   -0.0041    0.0020 C.3       1 <0>        -0.0860
      3 C3          0.7182   -0.4975   -1.2568 C.3       1 <0>        -0.1155
      4 C4          2.1536    0.0321   -1.2676 C.3       1 <0>        -0.1035
      5 C5          2.8936   -0.4747   -0.0281 C.3       1 <0>         0.1104
      6 C6          2.1775    0.0187    1.2307 C.3       1 <0>        -0.1114
      7 C7          0.7421   -0.5109    1.2415 C.3       1 <0>        -0.1112
      8 C8          4.3074    0.0469   -0.0388 C.2       1 <0>         0.5012
      9 O1          4.5139    1.2485   -0.0343 O.co2     1 <0>        -0.7120
     10 O2          5.2447   -0.7327   -0.0520 O.co2     1 <0>        -0.6701
     11 N1          2.9135   -1.9396   -0.0362 N.am      1 <0>        -0.6838
     12 C9          3.5158   -2.6109    0.9654 C.2       1 <0>         0.5780
     13 O3          4.0421   -2.0014    1.8746 O.2       1 <0>        -0.5214
     14 C10         3.5359   -4.0968    0.9572 C.2       1 <0>         0.2093
     15 C11         4.1473   -4.7873    1.9848 C.2       1 <0>        -0.3716
     16 C12         4.1472   -6.1994    1.9439 C.2       1 <0>         0.5404
     17 O4          4.6757   -6.8471    2.8315 O.2       1 <0>        -0.6032
     18 N2          3.5501   -6.8175    0.9030 N.am      1 <0>        -0.6606
     19 H1          3.5389   -7.7863    0.8567 H         1 <0>         0.3928
     20 C13         2.9644   -6.0849   -0.0793 C.2       1 <0>         0.6085
     21 O5          2.3722   -6.7207   -1.1112 O.3       1 <0>        -0.6844
     22 N3          2.9560   -4.7719   -0.0448 N.2       1 <0>        -0.6110
     23 H2          1.0039    1.9031    0.0027 H         1 <0>         0.0707
     24 H3         -0.5459    1.8868   -0.8726 H         1 <0>         0.0438
     25 H4         -0.5289    1.8773    0.9072 H         1 <0>         0.0443
     26 H5         -1.0205   -0.3814    0.0098 H         1 <0>         0.0570
     27 H6          0.7330   -1.5874   -1.2628 H         1 <0>         0.0642
     28 H7          0.1910   -0.1364   -2.1398 H         1 <0>         0.0530
     29 H8          2.6638   -0.3194   -2.1644 H         1 <0>         0.0567
     30 H9          2.1388    1.1220   -1.2617 H         1 <0>         0.0781
     31 H10         2.7046   -0.3424    2.1137 H         1 <0>         0.0749
     32 H11         2.1627    1.1086    1.2367 H         1 <0>         0.0669
     33 H12         0.2319   -0.1594    2.1383 H         1 <0>         0.0482
     34 H13         0.7568   -1.6008    1.2356 H         1 <0>         0.0605
     35 H14         2.4931   -2.4263   -0.7623 H         1 <0>         0.3984
     36 H15         4.6159   -4.2592    2.8021 H         1 <0>         0.1382
@<TRIPOS>BOND
     1    1    2 1
     2    1   23 1
     3    1   24 1
     4    1   25 1
     5    2    7 1
     6    2    3 1
     7    2   26 1
     8    3    4 1
     9    3   27 1
    10    3   28 1
    11    4    5 1
    12    4   29 1
    13    4   30 1
    14    5    6 1
    15    5    8 1
    16    5   11 1
    17    6    7 1
    18    6   31 1
    19    6   32 1
    20    7   33 1
    21    7   34 1
    22    8    9 2
    23    8   10 1
    24   11   12 am
    25   11   35 1
    26   12   13 2
    27   12   14 1
    28   14   22 1
    29   14   15 2
    30   15   16 1
    31   15   36 1
    32   16   17 2
    33   16   18 am
    34   18   19 1
    35   18   20 1
    36   20   21 1
    37   20   22 2
@<TRIPOS>MOLECULE
ZINC40571612
   34    33     0     0     0
SMALL
USER_CHARGES

@<TRIPOS>ATOM
      1 C1         -0.0178    1.4608    0.0101 C.3       1 <0>         0.0872
      2 N1          0.0021   -0.0041    0.0020 N.am      1 <0>        -0.6246
      3 C2          0.0241   -0.7433    1.2666 C.3       1 <0>         0.0743
      4 C3          0.0001   -0.6716   -1.1688 C.2       1 <0>         0.5106
      5 O1         -0.0182   -0.0596   -2.2157 O.2       1 <0>        -0.5314
      6 C4          0.0205   -2.1784   -1.1771 C.3       1 <0>         0.1289
      7 N2          0.0139   -2.6593   -2.5609 N.am      1 <0>        -0.7476
      8 C5          0.0296   -3.9829   -2.8145 C.2       1 <0>         0.7065
      9 O2          0.0491   -4.7779   -1.8947 O.2       1 <0>        -0.6035
     10 N3          0.0235   -4.4253   -4.0875 N.am      1 <0>        -0.6980
     11 C6          0.0405   -5.8640   -4.3632 C.3       1 <0>         0.0929
     12 H1          0.6441   -6.3711   -3.6103 H         1 <0>         0.0759
     13 C7          0.6404   -6.1108   -5.7488 C.3       1 <0>        -0.0825
     14 C8          2.1087   -5.6806   -5.7529 C.3       1 <0>        -0.1762
     15 C9          2.6996   -5.9237   -7.1177 C.2       1 <0>         0.4909
     16 O3          2.0103   -6.3972   -8.0049 O.co2     1 <0>        -0.6980
     17 O4          3.8670   -5.6469   -7.3347 O.co2     1 <0>        -0.7208
     18 C10        -1.3674   -6.3999   -4.3226 C.2       1 <0>         0.4968
     19 O5         -2.3025   -5.6809   -4.6312 O.co2     1 <0>        -0.7000
     20 O6         -1.5714   -7.5525   -3.9813 O.co2     1 <0>        -0.7041
     21 H2          1.0048    1.8381    0.0023 H         1 <0>         0.0530
     22 H3         -0.5450    1.8219   -0.8730 H         1 <0>         0.0764
     23 H4         -0.5280    1.8123    0.9069 H         1 <0>         0.0674
     24 H5         -0.9979   -0.9406    1.5900 H         1 <0>         0.0602
     25 H6          0.5496   -1.6879    1.1262 H         1 <0>         0.0798
     26 H7          0.5371   -0.1514    2.0246 H         1 <0>         0.0716
     27 H8          0.9202   -2.5324   -0.6737 H         1 <0>         0.0921
     28 H9         -0.8595   -2.5566   -0.6569 H         1 <0>         0.0927
     29 H10        -0.0016   -2.0251   -3.2947 H         1 <0>         0.4029
     30 H11         0.0079   -3.7911   -4.8213 H         1 <0>         0.3901
     31 H12         0.5719   -7.1714   -5.9907 H         1 <0>         0.0723
     32 H13         0.0903   -5.5326   -6.4912 H         1 <0>         0.0601
     33 H14         2.1772   -4.6200   -5.5109 H         1 <0>         0.0517
     34 H15         2.6588   -6.2589   -5.0105 H         1 <0>         0.0521
@<TRIPOS>BOND
     1    1    2 1
     2    1   21 1
     3    1   22 1
     4    1   23 1
     5    2    3 1
     6    2    4 am
     7    3   24 1
     8    3   25 1
     9    3   26 1
    10    4    5 2
    11    4    6 1
    12    6    7 1
    13    6   27 1
    14    6   28 1
    15    7    8 am
    16    7   29 1
    17    8    9 2
    18    8   10 am
    19   10   11 1
    20   10   30 1
    21   11   12 1
    22   11   13 1
    23   11   18 1
    24   13   14 1
    25   13   31 1
    26   13   32 1
    27   14   15 1
    28   14   33 1
    29   14   34 1
    30   15   16 2
    31   15   17 1
    32   18   19 2
    33   18   20 1
@<TRIPOS>MOLECULE
ZINC44936484
   23    23     0     0     0
SMALL
USER_CHARGES

@<TRIPOS>ATOM
      1 C1         -0.0187    1.5258    0.0104 C.3       1 <0>        -0.1945
      2 C2          0.0021   -0.0041    0.0020 C.3       1 <0>         0.1615
      3 N1         -1.3723   -0.5112    0.0124 N.am      1 <0>        -0.7494
      4 C3         -1.6006   -1.8394    0.0075 C.2       1 <0>         0.7013
      5 O1         -0.6659   -2.6169   -0.0056 O.2       1 <0>        -0.6003
      6 N2         -2.8650   -2.3059    0.0170 N.am      1 <0>        -0.7375
      7 C4         -3.1131   -3.7498    0.0116 C.3       1 <0>         0.2586
      8 C5         -4.5984   -4.0043    0.0245 C.2       1 <0>         0.0372
      9 N3         -5.3680   -4.1377    1.0949 N.2       1 <0>        -0.3736
     10 N4         -6.5732   -4.3431    0.6853 N.2       1 <0>        -0.1997
     11 N5         -6.5843   -4.3428   -0.6022 N.2       1 <0>        -0.1997
     12 N6         -5.3873   -4.1320   -1.0325 N.2       1 <0>        -0.3736
     13 C6          1.3951    2.0474   -0.0003 C.2       1 <0>         0.4971
     14 O2          2.3325    1.2678   -0.0134 O.co2     1 <0>        -0.6930
     15 O3          1.6016    3.2490    0.0042 O.co2     1 <0>        -0.7079
     16 H1         -0.5459    1.8868   -0.8726 H         1 <0>         0.0622
     17 H2         -0.5289    1.8773    0.9072 H         1 <0>         0.0622
     18 H3          0.5123   -0.3556   -0.8948 H         1 <0>         0.0635
     19 H4          0.5293   -0.3651    0.8851 H         1 <0>         0.0635
     20 H5         -2.1181    0.1091    0.0229 H         1 <0>         0.3891
     21 H6         -3.6107   -1.6857    0.0275 H         1 <0>         0.3933
     22 H7         -2.6768   -4.1901   -0.8849 H         1 <0>         0.0698
     23 H8         -2.6598   -4.1996    0.8949 H         1 <0>         0.0698
@<TRIPOS>BOND
     1    1    2 1
     2    1   13 1
     3    1   16 1
     4    1   17 1
     5    2    3 1
     6    2   18 1
     7    2   19 1
     8    3    4 am
     9    3   20 1
    10    4    5 2
    11    4    6 am
    12    6    7 1
    13    6   21 1
    14    7    8 1
    15    7   22 1
    16    7   23 1
    17    8   12 2
    18    8    9 1
    19    9   10 1
    20   10   11 2
    21   11   12 1
    22   13   14 2
    23   13   15 1
@<TRIPOS>MOLECULE
ZINC62722497
   15    15     0     0     0
SMALL
USER_CHARGES

@<TRIPOS>ATOM
      1 C1         -0.0127    1.0858    0.0080 C.3       1 <0>        -0.1025
      2 H1          0.0021   -0.0041    0.0020 H         1 <0>         0.0932
      3 C2         -0.7159    1.5838    1.2784 C.3       1 <0>         0.0841
      4 H2         -1.6516    1.0428    1.4196 H         1 <0>         0.0737
      5 N1          0.1856    1.3281    2.4145 N.pl3     1 <0>        -0.7552
      6 C3          1.4775    1.7521    2.3121 C.2       1 <0>         0.6837
      7 O1          2.1814    2.0316    3.4244 O.3       1 <0>        -0.7033
      8 N2          2.0407    1.8890    1.1260 N.2       1 <0>        -0.6896
      9 C4          1.4004    1.6102   -0.0027 C.2       1 <0>         0.5244
     10 O2          1.9645    1.7807   -1.0654 O.2       1 <0>        -0.5736
     11 C5         -0.9916    3.0610    1.1648 C.2       1 <0>         0.4881
     12 O3         -2.0412    3.4498    0.6814 O.co2     1 <0>        -0.6935
     13 O4         -0.1651    3.8673    1.5563 O.co2     1 <0>        -0.6633
     14 Br1        -0.9704    1.7405   -1.5792 Br        1 <0>        -0.1450
     15 H3         -0.1298    0.8727    3.2108 H         1 <0>         0.3788
@<TRIPOS>BOND
     1    1    2 1
     2    1    9 1
     3    1    3 1
     4    1   14 1
     5    3    4 1
     6    3    5 1
     7    3   11 1
     8    5    6 1
     9    5   15 1
    10    6    7 1
    11    6    8 2
    12    8    9 1
    13    9   10 2
    14   11   12 2
    15   11   13 1
@<TRIPOS>MOLECULE
ZINC01958509
   20    19     0     0     0
SMALL
USER_CHARGES
2-(carboxymethyl-thiocarbamoylamino-amino)acetic acid
@<TRIPOS>ATOM
      1 C1         -1.3295    1.9397    0.0189 C.3       1 <0>        -0.0090
      2 C2         -0.0143    1.2041    0.0087 C.2       1 <0>         0.4675
      3 O1          0.0021   -0.0041    0.0020 O.co2     1 <0>        -0.6102
      4 N1         -2.4330    0.9701    0.0189 N.3       1 <0>        -0.2906
      5 C3         -3.7237    1.6413   -0.1848 C.3       1 <0>        -0.0077
      6 C4         -4.7993    0.6077   -0.3985 C.2       1 <0>         0.4672
      7 O2         -4.5194   -0.5676   -0.3827 O.co2     1 <0>        -0.6091
      8 N2         -2.4395    0.2358    1.1707 N.pl3     1 <0>        -0.5097
      9 C5         -2.2289   -1.0945    1.1230 C.2       1 <0>         0.6940
     10 S1         -2.2370   -2.0148    2.5666 S.2       1 <0>        -0.7659
     11 N3         -2.0119   -1.7004   -0.0611 N.pl3     1 <0>        -0.7413
     12 H1         -1.3915    2.5607    0.9126 H         1 <0>         0.0425
     13 H2         -1.4000    2.5704   -0.8673 H         1 <0>         0.0901
     14 H3         -3.9645    2.2400    0.6936 H         1 <0>         0.0427
     15 H4         -3.6626    2.2884   -1.0599 H         1 <0>         0.0903
     16 H5         -2.5957    0.6719    2.0230 H         1 <0>         0.3933
     17 H6         -2.0073   -1.1790   -0.8791 H         1 <0>         0.4111
     18 H7         -1.8603   -2.6579   -0.0955 H         1 <0>         0.4083
     19 O3          1.1389    1.8910    0.0013 O.co2     1 <0>        -0.7813
     20 O4         -6.0683    0.9927   -0.6063 O.co2     1 <0>        -0.7821
@<TRIPOS>BOND
     1    1    2 1
     2    1    4 1
     3    1   12 1
     4    1   13 1
     5    2    3 2
     6    2   19 1
     7    4    5 1
     8    4    8 1
     9    5    6 1
    10    5   14 1
    11    5   15 1
    12    6    7 2
    13    6   20 1
    14    8    9 1
    15    8   16 1
    16    9   10 2
    17    9   11 1
    18   11   17 1
    19   11   18 1
@<TRIPOS>MOLECULE
ZINC16139015
   22    21     0     0     0
SMALL
USER_CHARGES
(2Z)-2-(acetylhydrazono)pentanedioic acid
@<TRIPOS>ATOM
      1 C1          2.3932    2.8992    6.4505 C.3       1 <0>        -0.1601
      2 C2          1.6869    3.0754    5.1309 C.2       1 <0>         0.5069
      3 O1          1.5206    4.1869    4.6760 O.2       1 <0>        -0.5591
      4 N1          1.2401    1.9975    4.4565 N.am      1 <0>        -0.5629
      5 N2          0.5835    2.1612    3.2298 N.2       1 <0>        -0.2368
      6 C3          0.0525    1.1336    2.6338 C.2       1 <0>         0.0681
      7 C4         -0.7613    1.3271    1.3802 C.3       1 <0>        -0.0248
      8 C5         -0.0534    0.6525    0.2035 C.3       1 <0>        -0.1503
      9 C6         -0.8672    0.8459   -1.0501 C.2       1 <0>         0.4690
     10 O2         -1.9067    1.4603   -1.0067 O.co2     1 <0>        -0.6472
     11 C7          0.2459   -0.2119    3.1815 C.2       1 <0>         0.4739
     12 O3         -0.1550   -1.1817    2.5674 O.co2     1 <0>        -0.5914
     13 H1          2.4481    1.8383    6.6943 H         1 <0>         0.0767
     14 H2          3.4009    3.3087    6.3807 H         1 <0>         0.0871
     15 H3          1.8413    3.4233    7.2308 H         1 <0>         0.0869
     16 H4          1.3731    1.1082    4.8205 H         1 <0>         0.4107
     17 H5         -0.8683    2.3927    1.1773 H         1 <0>         0.0708
     18 H6         -1.7471    0.8820    1.5148 H         1 <0>         0.0822
     19 H7          0.0536   -0.4131    0.4063 H         1 <0>         0.0857
     20 H8          0.9325    1.0975    0.0689 H         1 <0>         0.0564
     21 O4         -0.4373    0.3357   -2.2148 O.co2     1 <0>        -0.7878
     22 O5          0.8686   -0.3744    4.3668 O.co2     1 <0>        -0.7539
@<TRIPOS>BOND
     1    1    2 1
     2    1   13 1
     3    1   14 1
     4    1   15 1
     5    2    3 2
     6    2    4 am
     7    4    5 1
     8    4   16 1
     9    5    6 2
    10    6    7 1
    11    6   11 1
    12    7    8 1
    13    7   17 1
    14    7   18 1
    15    8    9 1
    16    8   19 1
    17    8   20 1
    18    9   10 2
    19    9   21 1
    20   11   12 2
    21   11   22 1
@<TRIPOS>MOLECULE
ZINC37584072
   27    27     0     0     0
SMALL
USER_CHARGES

@<TRIPOS>ATOM
      1 C1         -0.0165    1.3659    0.0096 C.2       1 <0>         0.0572
      2 C2          1.2639    1.7983   -0.0004 C.2       1 <0>        -0.0085
      3 N1          2.0838    0.6656   -0.0143 N.am      1 <0>        -0.6236
      4 H1          3.0538    0.6608   -0.0233 H         1 <0>         0.4367
      5 C3          1.2829   -0.4182   -0.0124 C.2       1 <0>         0.6539
      6 O1          1.6552   -1.5771   -0.0222 O.2       1 <0>        -0.5820
      7 N2          0.0021   -0.0041    0.0020 N.am      1 <0>        -0.6279
      8 H2         -0.7783   -0.5801    0.0064 H         1 <0>         0.4319
      9 C4          1.7103    3.1952    0.0022 C.2       1 <0>         0.5850
     10 O2          0.8917    4.0957    0.0141 O.2       1 <0>        -0.5427
     11 N3          3.0272    3.4819   -0.0088 N.am      1 <0>        -0.6738
     12 C5          3.4732    4.8773   -0.0063 C.3       1 <0>         0.0727
     13 H3          2.7875    5.4768    0.5925 H         1 <0>         0.0817
     14 C6          4.8794    4.9623    0.5906 C.3       1 <0>        -0.0816
     15 C7          4.8342    4.5492    2.0631 C.3       1 <0>        -0.1782
     16 C8          6.2192    4.6328    2.6511 C.2       1 <0>         0.4903
     17 O3          7.1557    4.9898    1.9567 O.co2     1 <0>        -0.6967
     18 O4          6.4033    4.3436    3.8211 O.co2     1 <0>        -0.7196
     19 C9          3.4949    5.4003   -1.4195 C.2       1 <0>         0.4958
     20 O5          3.1682    4.6746   -2.3431 O.co2     1 <0>        -0.6967
     21 O6          3.8392    6.5491   -1.6391 O.co2     1 <0>        -0.6972
     22 H4         -0.8980    1.9897    0.0253 H         1 <0>         0.1960
     23 H5          3.6797    2.7642   -0.0183 H         1 <0>         0.3876
     24 H6          5.5462    4.2939    0.0460 H         1 <0>         0.0558
     25 H7          5.2465    5.9856    0.5115 H         1 <0>         0.0812
     26 H8          4.1673    5.2176    2.6077 H         1 <0>         0.0534
     27 H9          4.4671    3.5259    2.1423 H         1 <0>         0.0493
@<TRIPOS>BOND
     1    1    7 1
     2    1    2 2
     3    1   22 1
     4    2    3 1
     5    2    9 1
     6    3    4 1
     7    3    5 am
     8    5    6 2
     9    5    7 am
    10    7    8 1
    11    9   10 2
    12    9   11 am
    13   11   12 1
    14   11   23 1
    15   12   13 1
    16   12   14 1
    17   12   19 1
    18   14   15 1
    19   14   24 1
    20   14   25 1
    21   15   16 1
    22   15   26 1
    23   15   27 1
    24   16   17 2
    25   16   18 1
    26   19   20 2
    27   19   21 1
@<TRIPOS>MOLECULE
ZINC40574137
   37    36     0     0     0
SMALL
USER_CHARGES

@<TRIPOS>ATOM
      1 C1         -0.0178    1.4608    0.0101 C.3       1 <0>         0.0882
      2 N1          0.0021   -0.0041    0.0020 N.am      1 <0>        -0.6318
      3 C2          0.0241   -0.7433    1.2666 C.3       1 <0>         0.0805
      4 C3          0.0001   -0.6716   -1.1688 C.2       1 <0>         0.4918
      5 O1         -0.0182   -0.0596   -2.2157 O.2       1 <0>        -0.5158
      6 C4          0.0205   -2.1784   -1.1771 C.3       1 <0>         0.1259
      7 N2          0.0139   -2.6593   -2.5609 N.am      1 <0>        -0.6257
      8 C5          1.2792   -2.8825   -3.2648 C.3       1 <0>         0.0894
      9 C6         -1.1561   -2.8964   -3.1864 C.2       1 <0>         0.7186
     10 O2         -2.2062   -2.7112   -2.6022 O.2       1 <0>        -0.6002
     11 N3         -1.1622   -3.3388   -4.4595 N.am      1 <0>        -0.6961
     12 C7         -2.4340   -3.5965   -5.1394 C.3       1 <0>         0.0901
     13 H1         -3.1764   -2.8701   -4.8088 H         1 <0>         0.0746
     14 C8         -2.2380   -3.4731   -6.6517 C.3       1 <0>        -0.0793
     15 C9         -1.8767   -2.0285   -7.0030 C.3       1 <0>        -0.1765
     16 C10        -1.6836   -1.9070   -8.4927 C.2       1 <0>         0.4913
     17 O3         -1.8221   -2.8852   -9.2071 O.co2     1 <0>        -0.6984
     18 O4         -1.3888   -0.8305   -8.9834 O.co2     1 <0>        -0.7207
     19 C11        -2.9089   -4.9873   -4.8062 C.2       1 <0>         0.4956
     20 O5         -2.2464   -5.6975   -4.0691 O.co2     1 <0>        -0.6990
     21 O6         -3.9556   -5.4024   -5.2737 O.co2     1 <0>        -0.7031
     22 H2          1.0048    1.8381    0.0023 H         1 <0>         0.0486
     23 H3         -0.5450    1.8219   -0.8730 H         1 <0>         0.0752
     24 H4         -0.5280    1.8123    0.9069 H         1 <0>         0.0637
     25 H5         -0.9979   -0.9406    1.5900 H         1 <0>         0.0570
     26 H6          0.5496   -1.6879    1.1262 H         1 <0>         0.0726
     27 H7          0.5371   -0.1514    2.0246 H         1 <0>         0.0673
     28 H8          0.9202   -2.5324   -0.6737 H         1 <0>         0.0981
     29 H9         -0.8595   -2.5566   -0.6569 H         1 <0>         0.1120
     30 H10         1.6094   -3.9084   -3.1022 H         1 <0>         0.0537
     31 H11         1.1364   -2.7115   -4.3319 H         1 <0>         0.0704
     32 H12         2.0332   -2.1935   -2.8842 H         1 <0>         0.0616
     33 H13        -0.3244   -3.4865   -4.9256 H         1 <0>         0.3864
     34 H14        -1.4333   -4.1364   -6.9691 H         1 <0>         0.0539
     35 H15        -3.1604   -3.7512   -7.1615 H         1 <0>         0.0786
     36 H16        -2.6813   -1.3653   -6.6857 H         1 <0>         0.0514
     37 H17        -0.9542   -1.7504   -6.4932 H         1 <0>         0.0502
@<TRIPOS>BOND
     1    1    2 1
     2    1   22 1
     3    1   23 1
     4    1   24 1
     5    2    3 1
     6    2    4 am
     7    3   25 1
     8    3   26 1
     9    3   27 1
    10    4    5 2
    11    4    6 1
    12    6    7 1
    13    6   28 1
    14    6   29 1
    15    7    8 1
    16    7    9 am
    17    8   30 1
    18    8   31 1
    19    8   32 1
    20    9   10 2
    21    9   11 am
    22   11   12 1
    23   11   33 1
    24   12   13 1
    25   12   14 1
    26   12   19 1
    27   14   15 1
    28   14   34 1
    29   14   35 1
    30   15   16 1
    31   15   36 1
    32   15   37 1
    33   16   17 2
    34   16   18 1
    35   19   20 2
    36   19   21 1
@<TRIPOS>MOLECULE
ZINC50930864
   36    37     0     0     0
SMALL
USER_CHARGES

@<TRIPOS>ATOM
      1 C1         -0.0209    1.5274    0.0131 C.3       1 <0>        -0.1288
      2 C2          1.4181    2.0528    0.0008 C.3       1 <0>         0.1331
      3 N1          2.1502    1.4529    1.1246 N.am      1 <0>        -0.6289
      4 C3          2.1571   -0.0099    1.2628 C.3       1 <0>         0.1127
      5 C4          0.7098   -0.5121    1.2610 C.3       1 <0>        -0.1308
      6 C5         -0.0011   -0.0028    0.0051 C.3       1 <0>        -0.0876
      7 C6         -1.4368   -0.5311   -0.0176 C.3       1 <0>        -0.0857
      8 C7         -1.4175   -2.0551   -0.1513 C.3       1 <0>        -0.1828
      9 C8         -2.8317   -2.5754   -0.1736 C.2       1 <0>         0.4882
     10 O1         -3.7682   -1.7992   -0.0902 O.co2     1 <0>        -0.7012
     11 O2         -3.0393   -3.7725   -0.2750 O.co2     1 <0>        -0.7128
     12 C9          2.8034    2.2295    2.0114 C.2       1 <0>         0.7099
     13 O3          2.8678    3.4309    1.8357 O.2       1 <0>        -0.6040
     14 N2          3.3851    1.6745    3.0931 N.am      1 <0>        -0.7330
     15 C10         3.9986    2.5278    4.1137 C.3       1 <0>         0.2582
     16 C11         4.5736    1.6670    5.2089 C.2       1 <0>         0.0326
     17 N3          3.9467    1.2543    6.3009 N.2       1 <0>        -0.3709
     18 N4          4.7782    0.5423    6.9821 N.2       1 <0>        -0.1959
     19 N5          5.9019    0.4953    6.3552 N.2       1 <0>        -0.1975
     20 N6          5.8017    1.1723    5.2624 N.2       1 <0>        -0.3739
     21 H1         -0.5292    1.8800    0.9106 H         1 <0>         0.0658
     22 H2         -0.5478    1.8891   -0.8699 H         1 <0>         0.0716
     23 H3          1.8996    1.7775   -0.9376 H         1 <0>         0.0585
     24 H4          1.4119    3.1377    0.1062 H         1 <0>         0.0887
     25 H5          2.6988   -0.4533    0.4274 H         1 <0>         0.0659
     26 H6          2.6385   -0.2859    2.2010 H         1 <0>         0.0748
     27 H7          0.7030   -1.6021    1.2662 H         1 <0>         0.0780
     28 H8          0.1946   -0.1404    2.1467 H         1 <0>         0.0673
     29 H9          0.5290   -0.3545   -0.8801 H         1 <0>         0.0646
     30 H10        -1.9405   -0.2540    0.9085 H         1 <0>         0.0582
     31 H11        -1.9697   -0.0987   -0.8644 H         1 <0>         0.0573
     32 H12        -0.9138   -2.3322   -1.0774 H         1 <0>         0.0529
     33 H13        -0.8846   -2.4874    0.6956 H         1 <0>         0.0583
     34 H14         3.3977    0.7100    3.1958 H         1 <0>         0.3964
     35 H15         4.7941    3.1203    3.6618 H         1 <0>         0.0709
     36 H16         3.2436    3.1929    4.5330 H         1 <0>         0.0700
@<TRIPOS>BOND
     1    1    6 1
     2    1    2 1
     3    1   21 1
     4    1   22 1
     5    2    3 1
     6    2   23 1
     7    2   24 1
     8    3    4 1
     9    3   12 am
    10    4    5 1
    11    4   25 1
    12    4   26 1
    13    5    6 1
    14    5   27 1
    15    5   28 1
    16    6    7 1
    17    6   29 1
    18    7    8 1
    19    7   30 1
    20    7   31 1
    21    8    9 1
    22    8   32 1
    23    8   33 1
    24    9   10 2
    25    9   11 1
    26   12   13 2
    27   12   14 am
    28   14   15 1
    29   14   34 1
    30   15   16 1
    31   15   35 1
    32   15   36 1
    33   16   20 2
    34   16   17 1
    35   17   18 1
    36   18   19 2
    37   19   20 1
@<TRIPOS>MOLECULE
ZINC05426077
   28    30     0     0     0
SMALL
USER_CHARGES
2-(carboxymethylsulfanylBLAHyl)sulfanylacetic acid
@<TRIPOS>ATOM
      1 C1         -0.0504    3.8682    0.0228 C.ar      1 <0>        -0.0199
      2 C2          1.1865    3.2025    0.0074 C.ar      1 <0>         0.1098
      3 C3          1.1603    1.7866    0.0006 C.ar      1 <0>        -0.1436
      4 C4         -0.0126    1.0758    0.0080 C.ar      1 <0>        -0.0022
      5 C5         -1.2043    1.7544    0.0172 C.ar      1 <0>        -0.1436
      6 C6         -1.2688    3.1691    0.0306 C.ar      1 <0>         0.1098
      7 N1         -2.5199    3.6907    0.0454 N.2       1 <0>        -0.5147
      8 C7         -3.5987    2.9420    0.0363 C.2       1 <0>         0.1355
      9 S1         -2.9179    1.2897    0.0242 S.3       1 <0>         0.0149
     10 S2         -5.2888    3.4401    0.0480 S.3       1 <0>         0.0990
     11 C8         -5.0863    5.2387    0.0560 C.3       1 <0>        -0.1548
     12 C9         -6.4420    5.8968    0.0667 C.2       1 <0>         0.4829
     13 O1         -7.4424    5.2193    0.0687 O.co2     1 <0>        -0.6219
     14 S3          2.8858    1.3685   -0.0176 S.3       1 <0>         0.0148
     15 C10         3.5216    3.0387   -0.0152 C.2       1 <0>         0.1355
     16 N2          2.4230    3.7579   -0.0013 N.2       1 <0>        -0.5147
     17 S4          5.1975    3.5825   -0.0289 S.3       1 <0>         0.0989
     18 C11         4.9464    5.3750   -0.0171 C.3       1 <0>        -0.1547
     19 C12         6.2837    6.0696   -0.0267 C.2       1 <0>         0.4828
     20 O2          7.3021    5.4195   -0.0402 O.co2     1 <0>        -0.6219
     21 H1         -0.0651    4.9481    0.0284 H         1 <0>         0.1419
     22 H2          0.0021   -0.0041    0.0020 H         1 <0>         0.1407
     23 H3         -4.5302    5.5378    0.9445 H         1 <0>         0.1031
     24 H4         -4.5399    5.5468   -0.8354 H         1 <0>         0.1029
     25 H5          4.3784    5.6682   -0.8999 H         1 <0>         0.1030
     26 H6          4.3960    5.6588    0.8799 H         1 <0>         0.1030
     27 O3         -6.5381    7.2356    0.0740 O.co2     1 <0>        -0.7433
     28 O4          6.3436    7.4106   -0.0202 O.co2     1 <0>        -0.7433
@<TRIPOS>BOND
     1    1    6 ar
     2    1    2 ar
     3    1   21 1
     4    2   16 1
     5    2    3 ar
     6    3    4 ar
     7    3   14 1
     8    4    5 ar
     9    4   22 1
    10    5    9 1
    11    5    6 ar
    12    6    7 1
    13    7    8 2
    14    8    9 1
    15    8   10 1
    16   10   11 1
    17   11   12 1
    18   11   23 1
    19   11   24 1
    20   12   13 2
    21   12   27 1
    22   14   15 1
    23   15   16 2
    24   15   17 1
    25   17   18 1
    26   18   19 1
    27   18   25 1
    28   18   26 1
    29   19   20 2
    30   19   28 1
@<TRIPOS>MOLECULE
ZINC16934552
   43    44     0     0     0
SMALL
USER_CHARGES
(2S)-2-[(5Z)-5-[[4-[(1R)-1-carboxypropoxy]phenyl]methylene]-4-oxo-2-thioxo-thiazolidin-3-yl]butanedioic acid
@<TRIPOS>ATOM
      1 C1         -3.1958    2.2061    1.1096 C.3       1 <0>        -0.1487
      2 C2         -3.1906    1.6356   -0.3100 C.3       1 <0>        -0.1012
      3 C3         -2.7491    2.7207   -1.2942 C.3       1 <0>         0.0357
      4 H1         -3.3879    3.5964   -1.1800 H         1 <0>         0.0782
      5 C4         -2.8614    2.1971   -2.7028 C.2       1 <0>         0.4485
      6 O1         -1.8678    2.0546   -3.3754 O.co2     1 <0>        -0.6160
      7 O2         -1.3927    3.0825   -1.0272 O.3       1 <0>        -0.2926
      8 C5         -1.0219    4.3524   -1.3325 C.ar      1 <0>         0.1746
      9 C6          0.2457    4.8059   -0.9865 C.ar      1 <0>        -0.1700
     10 C7          0.6287    6.0910   -1.2979 C.ar      1 <0>        -0.0486
     11 C8         -0.2654    6.9454   -1.9551 C.ar      1 <0>        -0.1321
     12 C9         -1.5431    6.4849   -2.2966 C.ar      1 <0>        -0.0458
     13 C10        -1.9135    5.1961   -1.9850 C.ar      1 <0>        -0.2016
     14 C11         0.1352    8.3191   -2.2845 C.2       1 <0>         0.0524
     15 C12        -0.7836    9.1990   -2.7579 C.2       1 <0>        -0.2095
     16 C13        -0.5882   10.5416   -3.3409 C.2       1 <0>         0.5573
     17 O3          0.5197   11.0304   -3.4632 O.2       1 <0>        -0.4576
     18 N1         -1.6775   11.1840   -3.7274 N.am      1 <0>        -0.4703
     19 C14        -2.9038   10.6414   -3.5839 C.2       1 <0>         0.3071
     20 S1         -4.4198   11.3117   -4.0121 S.2       1 <0>        -0.3554
     21 S2         -2.5635    9.0544   -2.8397 S.3       1 <0>         0.0118
     22 C15        -1.5499   12.5182   -4.3188 C.3       1 <0>         0.0913
     23 H2         -0.4974   12.7990   -4.3581 H         1 <0>         0.1099
     24 C16        -2.1275   12.5054   -5.7355 C.3       1 <0>        -0.1698
     25 C17        -1.2964   11.6011   -6.6088 C.2       1 <0>         0.4610
     26 O4         -0.3403   11.0257   -6.1455 O.co2     1 <0>        -0.6370
     27 C18        -2.3047   13.5150   -3.4776 C.2       1 <0>         0.4786
     28 O5         -2.8893   13.1485   -2.4857 O.co2     1 <0>        -0.6222
     29 H3         -3.5103    1.4330    1.8107 H         1 <0>         0.0485
     30 H4         -3.8879    3.0465    1.1609 H         1 <0>         0.0519
     31 H5         -2.1927    2.5451    1.3686 H         1 <0>         0.0563
     32 H6         -2.4985    0.7951   -0.3613 H         1 <0>         0.0645
     33 H7         -4.1937    1.2965   -0.5690 H         1 <0>         0.0865
     34 H8          0.9328    4.1475   -0.4757 H         1 <0>         0.1288
     35 H9          1.6154    6.4409   -1.0326 H         1 <0>         0.1319
     36 H10        -2.2364    7.1394   -2.8038 H         1 <0>         0.1363
     37 H11        -2.8985    4.8398   -2.2482 H         1 <0>         0.1351
     38 H12         1.1609    8.6294   -2.1501 H         1 <0>         0.1529
     39 H13        -3.1538   12.1394   -5.7062 H         1 <0>         0.0982
     40 H14        -2.1138   13.5165   -6.1426 H         1 <0>         0.0889
     41 O6         -4.0653    1.8890   -3.2103 O.co2     1 <0>        -0.7613
     42 O7         -1.6185   11.4346   -7.9012 O.co2     1 <0>        -0.7850
     43 O8         -2.3275   14.8099   -3.8301 O.co2     1 <0>        -0.7616
@<TRIPOS>BOND
     1    1    2 1
     2    1   29 1
     3    1   30 1
     4    1   31 1
     5    2    3 1
     6    2   32 1
     7    2   33 1
     8    3    4 1
     9    3    5 1
    10    3    7 1
    11    5    6 2
    12    5   41 1
    13    7    8 1
    14    8   13 ar
    15    8    9 ar
    16    9   10 ar
    17    9   34 1
    18   10   11 ar
    19   10   35 1
    20   11   12 ar
    21   11   14 1
    22   12   13 ar
    23   12   36 1
    24   13   37 1
    25   14   15 2
    26   14   38 1
    27   15   21 1
    28   15   16 1
    29   16   17 2
    30   16   18 am
    31   18   19 1
    32   18   22 1
    33   19   20 2
    34   19   21 1
    35   22   23 1
    36   22   24 1
    37   22   27 1
    38   24   25 1
    39   24   39 1
    40   24   40 1
    41   25   26 2
    42   25   42 1
    43   27   28 2
    44   27   43 1
@<TRIPOS>MOLECULE
ZINC35517166
   40    42     0     0     0
SMALL
USER_CHARGES

@<TRIPOS>ATOM
      1 C1         -0.0169    1.3953    0.0097 C.ar      1 <0>        -0.1057
      2 C2          1.1559    2.0940    0.0023 C.ar      1 <0>        -0.0843
      3 C3          2.3775    1.4107   -0.0131 C.ar      1 <0>        -0.1228
      4 C4          2.3963    0.0111   -0.0208 C.ar      1 <0>        -0.0910
      5 C5          1.2233   -0.6874   -0.0134 C.ar      1 <0>        -0.1086
      6 C6          0.0021   -0.0041    0.0020 C.ar      1 <0>        -0.0411
      7 C7         -1.2639   -0.7581    0.0106 C.2       1 <0>         0.0642
      8 C8         -1.3829   -2.1303    0.0099 C.2       1 <0>        -0.2090
      9 C9         -2.7490   -2.4213    0.0206 C.2       1 <0>        -0.1644
     10 C10        -3.4165   -1.2093    0.0274 C.2       1 <0>         0.0025
     11 O1         -2.4984   -0.2215    0.0262 O.3       1 <0>        -0.1433
     12 C11        -4.8184   -1.0365    0.0389 C.2       1 <0>         0.0259
     13 C12        -5.3508    0.2194    0.0446 C.2       1 <0>        -0.1695
     14 C13        -6.7632    0.6411    0.0625 C.2       1 <0>         0.5489
     15 O2         -7.6720   -0.1691    0.0754 O.2       1 <0>        -0.4601
     16 N1         -6.9943    1.9432    0.0643 N.am      1 <0>        -0.4700
     17 C14        -5.9848    2.8375    0.0504 C.2       1 <0>         0.2619
     18 S1         -6.0782    4.5469    0.0508 S.2       1 <0>        -0.2412
     19 S2         -4.5273    1.8060    0.0404 S.3       1 <0>         0.0057
     20 C15        -8.3777    2.4250    0.0813 C.3       1 <0>         0.0763
     21 H1         -9.0588    1.5739    0.0906 H         1 <0>         0.1014
     22 C16        -8.6065    3.2749    1.3328 C.3       1 <0>        -0.1980
     23 C17        -8.4705    2.4098    2.5592 C.2       1 <0>         0.4911
     24 O3         -8.2144    1.2235    2.4431 O.co2     1 <0>        -0.6913
     25 O4         -8.6166    2.8963    3.6676 O.co2     1 <0>        -0.7173
     26 C18        -8.6339    3.2600   -1.1468 C.2       1 <0>         0.4955
     27 O5         -9.7521    3.3056   -1.6306 O.co2     1 <0>        -0.6975
     28 O6         -7.7230    3.8900   -1.6565 O.co2     1 <0>        -0.6537
     29 C19         3.6428    2.1643   -0.0216 C.2       1 <0>         0.5205
     30 O7          3.6263    3.3876   -0.0153 O.co2     1 <0>        -0.6849
     31 O8          4.7104    1.5670   -0.0350 O.co2     1 <0>        -0.6931
     32 H2         -0.9594    1.9224    0.0261 H         1 <0>         0.1283
     33 H3          1.1413    3.1739    0.0079 H         1 <0>         0.1323
     34 H4          3.3387   -0.5162   -0.0330 H         1 <0>         0.1292
     35 H5          1.2378   -1.7672   -0.0197 H         1 <0>         0.1191
     36 H6         -0.5736   -2.8454    0.0020 H         1 <0>         0.1511
     37 H7         -3.1979   -3.4036    0.0225 H         1 <0>         0.1545
     38 H8         -5.4688   -1.8987    0.0431 H         1 <0>         0.1739
     39 H9         -7.8671    4.0750    1.3687 H         1 <0>         0.0939
     40 H10        -9.6071    3.7060    1.3013 H         1 <0>         0.0705
@<TRIPOS>BOND
     1    1    6 ar
     2    1    2 ar
     3    1   32 1
     4    2    3 ar
     5    2   33 1
     6    3    4 ar
     7    3   29 1
     8    4    5 ar
     9    4   34 1
    10    5    6 ar
    11    5   35 1
    12    6    7 1
    13    7   11 1
    14    7    8 2
    15    8    9 1
    16    8   36 1
    17    9   10 2
    18    9   37 1
    19   10   11 1
    20   10   12 1
    21   12   13 2
    22   12   38 1
    23   13   19 1
    24   13   14 1
    25   14   15 2
    26   14   16 am
    27   16   17 1
    28   16   20 1
    29   17   18 2
    30   17   19 1
    31   20   21 1
    32   20   22 1
    33   20   26 1
    34   22   23 1
    35   22   39 1
    36   22   40 1
    37   23   24 2
    38   23   25 1
    39   26   27 2
    40   26   28 1
    41   29   30 2
    42   29   31 1
@<TRIPOS>MOLECULE
ZINC42521673
   24    24     0     0     0
SMALL
USER_CHARGES

@<TRIPOS>ATOM
      1 C1         -0.0187    1.5258    0.0104 C.3       1 <0>        -0.1012
      2 C2          0.0021   -0.0041    0.0020 C.3       1 <0>        -0.6237
      3 H1          0.5123   -0.3556   -0.8948 H         1 <0>         0.1132
      4 C3         -1.4117   -0.5257    0.0127 C.2       1 <0>         0.5197
      5 O1         -2.0255   -0.6447   -1.0340 O.co2     1 <0>        -0.6902
      6 O2         -1.9418   -0.8287    1.0681 O.co2     1 <0>        -0.6808
      7 S1          0.8794   -0.6050    1.4716 S.o2      1 <0>         2.5708
      8 O3          0.2629   -0.1027    2.6492 O.2       1 <0>        -1.0097
      9 O4          1.1657   -1.9905    1.3383 O.2       1 <0>        -1.0360
     10 N1          2.3579    0.1390    1.4185 N.2       1 <0>        -1.0768
     11 C4          3.3006   -0.1066    2.4214 C.ar      1 <0>         0.3146
     12 C5          3.0004   -0.9785    3.4596 C.ar      1 <0>        -0.2342
     13 C6          3.9342   -1.2195    4.4498 C.ar      1 <0>         0.0429
     14 C7          5.1681   -0.5918    4.4074 C.ar      1 <0>        -0.1426
     15 C8          5.4694    0.2777    3.3744 C.ar      1 <0>        -0.0461
     16 C9          4.5418    0.5171    2.3780 C.ar      1 <0>        -0.0940
     17 Cl1         4.9237    1.6024    1.0781 Cl        1 <0>        -0.0794
     18 Cl2         6.3384   -0.8962    5.6530 Cl        1 <0>        -0.0975
     19 Cl3         3.5599   -2.3095    5.7481 Cl        1 <0>        -0.0867
     20 H2          1.0039    1.9031    0.0027 H         1 <0>         0.0698
     21 H3         -0.5459    1.8868   -0.8726 H         1 <0>         0.0528
     22 H4         -0.5289    1.8773    0.9072 H         1 <0>         0.0563
     23 H5          2.0382   -1.4677    3.4934 H         1 <0>         0.1302
     24 H6          6.4320    0.7664    3.3441 H         1 <0>         0.1288
@<TRIPOS>BOND
     1    1    2 1
     2    1   20 1
     3    1   21 1
     4    1   22 1
     5    2    3 1
     6    2    4 1
     7    2    7 1
     8    4    5 2
     9    4    6 1
    10    7    8 2
    11    7    9 2
    12    7   10 1
    13   10   11 1
    14   11   16 ar
    15   11   12 ar
    16   12   13 ar
    17   12   23 1
    18   13   14 ar
    19   13   19 1
    20   14   15 ar
    21   14   18 1
    22   15   16 ar
    23   15   24 1
    24   16   17 1
@<TRIPOS>MOLECULE
ZINC03152907
   26    27     0     0     0
SMALL
USER_CHARGES

@<TRIPOS>ATOM
      1 C1          7.7665   -2.1548   -1.1270 C.3       1 <0>        -0.1200
      2 C2          6.7616   -1.0114   -1.1163 C.2       1 <0>         0.4759
      3 O1          6.1561   -0.6708   -2.1110 O.2       1 <0>        -0.3762
      4 N1          6.5938   -0.4153    0.0521 N.am      1 <0>        -0.3743
      5 C3          7.2526   -0.7742    1.1696 C.2       1 <0>         0.3464
      6 S1          7.1282   -0.0904    2.7342 S.2       1 <0>        -0.3989
      7 S2          8.2868   -2.1314    0.6391 S.3       1 <0>        -0.1107
      8 N2          5.6827    0.6461    0.1308 N.2       1 <0>        -0.3260
      9 C4          4.4035    0.4208   -0.0102 C.2       1 <0>         0.3318
     10 S3          3.2726    1.7706   -0.0711 S.3       1 <0>        -0.6676
     11 S4          3.8092   -1.2329   -0.1393 S.3       1 <0>        -0.0802
     12 S5          1.7959   -1.0130   -0.4570 S.3       1 <0>        -0.0804
     13 C5          1.6586   -0.8187   -2.2029 C.2       1 <0>         0.3327
     14 S6          3.0889   -0.9674   -3.2211 S.3       1 <0>        -0.6704
     15 N3          0.4962   -0.5642   -2.7425 N.2       1 <0>        -0.3249
     16 N4         -0.6168   -0.3221   -1.9268 N.am      1 <0>        -0.3743
     17 C6         -0.6274    0.7771   -1.1917 C.2       1 <0>         0.4733
     18 O2          0.2880    1.5733   -1.2025 O.2       1 <0>        -0.3719
     19 C7         -1.8676    0.9747   -0.3313 C.3       1 <0>        -0.1196
     20 S7         -2.8081   -0.5422   -0.7841 S.3       1 <0>        -0.1112
     21 C8         -1.6215   -1.2177   -1.9367 C.2       1 <0>         0.3472
     22 S8         -1.7348   -2.6672   -2.8407 S.2       1 <0>        -0.4004
     23 H1          7.2895   -3.0996   -1.3875 H         1 <0>         0.1517
     24 H2          8.6044   -1.9402   -1.7903 H         1 <0>         0.1484
     25 H3         -1.6170    0.9842    0.7294 H         1 <0>         0.1515
     26 H4         -2.4086    1.8769   -0.6167 H         1 <0>         0.1481
@<TRIPOS>BOND
     1    1    7 1
     2    1    2 1
     3    1   23 1
     4    1   24 1
     5    2    3 2
     6    2    4 am
     7    4    5 1
     8    4    8 1
     9    5    6 2
    10    5    7 1
    11    8    9 2
    12    9   10 1
    13    9   11 1
    14   11   12 1
    15   12   13 1
    16   13   14 1
    17   13   15 2
    18   15   16 1
    19   16   21 1
    20   16   17 am
    21   17   18 2
    22   17   19 1
    23   19   20 1
    24   19   25 1
    25   19   26 1
    26   20   21 1
    27   21   22 2
@<TRIPOS>MOLECULE
ZINC03844950
   24    24     0     0     0
SMALL
USER_CHARGES
2,3-dibromo-3-[3-(2-carboxyvinyl)phenyl]-prop-2-enoic acid
@<TRIPOS>ATOM
      1 C1          0.0386    1.1393   -0.2535 C.ar      1 <0>        -0.1234
      2 C2          1.1985    1.8192    0.0604 C.ar      1 <0>        -0.1106
      3 C3          1.1515    3.1819    0.3760 C.ar      1 <0>        -0.0431
      4 C4         -0.0721    3.8534    0.3724 C.ar      1 <0>        -0.0730
      5 C5         -1.2393    3.1591    0.0537 C.ar      1 <0>        -0.0489
      6 C6         -1.1746    1.7977   -0.2647 C.ar      1 <0>        -0.1023
      7 C7         -2.5356    3.8582    0.0469 C.2       1 <0>        -0.0547
      8 C8         -2.6690    5.0280   -0.6166 C.2       1 <0>        -0.0886
      9 C9         -3.9118    5.7900   -0.5116 C.2       1 <0>         0.4808
     10 O1         -4.8260    5.3713    0.1728 O.co2     1 <0>        -0.5896
     11 Br1        -1.2478    5.6789   -1.6807 Br        1 <0>        -0.0407
     12 Br2        -4.0133    3.1189    0.9666 Br        1 <0>        -0.0099
     13 C10         2.3891    3.9049    0.7113 C.2       1 <0>        -0.1050
     14 C11         3.5707    3.2540    0.7147 C.2       1 <0>        -0.1581
     15 C12         4.8002    3.9723    1.0478 C.2       1 <0>         0.4767
     16 O2          4.7575    5.1564    1.3218 O.co2     1 <0>        -0.6347
     17 H1          0.0812    0.0877   -0.4958 H         1 <0>         0.1205
     18 H2          2.1444    1.2981    0.0627 H         1 <0>         0.1260
     19 H3         -0.1150    4.9050    0.6147 H         1 <0>         0.1282
     20 H4         -2.0769    1.2598   -0.5156 H         1 <0>         0.1211
     21 H5          2.3511    4.9564    0.9546 H         1 <0>         0.1269
     22 H6          3.6086    2.2024    0.4714 H         1 <0>         0.1057
     23 O3         -4.0450    6.9579   -1.1740 O.co2     1 <0>        -0.7328
     24 O4          5.9818    3.3213    1.0512 O.co2     1 <0>        -0.7705
@<TRIPOS>BOND
     1    1    6 ar
     2    1    2 ar
     3    1   17 1
     4    2    3 ar
     5    2   18 1
     6    3    4 ar
     7    3   13 1
     8    4    5 ar
     9    4   19 1
    10    5    6 ar
    11    5    7 1
    12    6   20 1
    13    7    8 2
    14    7   12 1
    15    8    9 1
    16    8   11 1
    17    9   10 2
    18    9   23 1
    19   13   14 2
    20   13   21 1
    21   14   15 1
    22   14   22 1
    23   15   16 2
    24   15   24 1
@<TRIPOS>MOLECULE
ZINC16934570
   40    41     0     0     0
SMALL
USER_CHARGES
(2S)-2-[(5Z)-5-[[3-[(1S)-2-hydroxy-1-methyl-2-oxo-ethoxy]phenyl]methylene]-4-oxo-2-thioxo-thiazolidin-3-yl]butanedioic acid
@<TRIPOS>ATOM
      1 C1          2.4324   -0.7403   -2.2904 C.3       1 <0>        -0.1546
      2 C2          2.6029   -0.3548   -0.8196 C.3       1 <0>         0.0362
      3 H1          1.7944   -0.7916   -0.2334 H         1 <0>         0.0727
      4 C3          3.9254   -0.8717   -0.3149 C.2       1 <0>         0.4725
      5 O1          4.7531   -0.1006    0.1097 O.co2     1 <0>        -0.6040
      6 O2          2.5679    1.0682   -0.6930 O.3       1 <0>        -0.2783
      7 C4          1.3423    1.6520   -0.6283 C.ar      1 <0>         0.1495
      8 C5          0.1964    0.8714   -0.7155 C.ar      1 <0>        -0.2107
      9 C6         -1.0543    1.4574   -0.6442 C.ar      1 <0>        -0.0849
     10 C7         -1.1740    2.8229   -0.4921 C.ar      1 <0>        -0.1438
     11 C8         -0.0264    3.6192   -0.4089 C.ar      1 <0>        -0.0314
     12 C9          1.2371    3.0236   -0.4809 C.ar      1 <0>        -0.1402
     13 C10        -0.1483    5.0754   -0.2472 C.2       1 <0>         0.0229
     14 C11         0.9144    5.8014    0.1802 C.2       1 <0>        -0.1851
     15 C12         1.0750    7.2678    0.2809 C.2       1 <0>         0.5551
     16 O3          0.1849    8.0324   -0.0410 O.2       1 <0>        -0.4543
     17 N1          2.2360    7.7056    0.7385 N.am      1 <0>        -0.4721
     18 C13         3.2200    6.8546    1.0933 C.2       1 <0>         0.3010
     19 S1          4.7770    7.2245    1.7014 S.2       1 <0>        -0.3360
     20 S2          2.5034    5.2486    0.7843 S.3       1 <0>         0.0322
     21 C14         2.4583    9.1483    0.8622 C.3       1 <0>         0.0917
     22 H2          1.5668    9.6828    0.5340 H         1 <0>         0.1100
     23 C15         2.7523    9.4955    2.3230 C.3       1 <0>        -0.1698
     24 C16         1.5350    9.2063    3.1629 C.2       1 <0>         0.4623
     25 O4          0.5348    8.7674    2.6462 O.co2     1 <0>        -0.6384
     26 C17         3.6300    9.5514    0.0044 C.2       1 <0>         0.4771
     27 O5          4.2188    8.7190   -0.6438 O.co2     1 <0>        -0.6197
     28 H3          1.4758   -0.3665   -2.6554 H         1 <0>         0.0495
     29 H4          3.2408   -0.3035   -2.8766 H         1 <0>         0.0600
     30 H5          2.4590   -1.8257   -2.3869 H         1 <0>         0.0743
     31 H6          0.2827   -0.1985   -0.8350 H         1 <0>         0.1304
     32 H7         -1.9405    0.8434   -0.7083 H         1 <0>         0.1214
     33 H8         -2.1523    3.2770   -0.4368 H         1 <0>         0.1257
     34 H9          2.1273    3.6318   -0.4175 H         1 <0>         0.1458
     35 H10        -1.0840    5.5669   -0.4688 H         1 <0>         0.1570
     36 H11         3.5897    8.8947    2.6778 H         1 <0>         0.0982
     37 H12         3.0049   10.5530    2.4013 H         1 <0>         0.0896
     38 O6          4.1839   -2.1887   -0.3369 O.co2     1 <0>        -0.7642
     39 O7          1.5617    9.4362    4.4851 O.co2     1 <0>        -0.7859
     40 O8          4.0193   10.8352   -0.0395 O.co2     1 <0>        -0.7616
@<TRIPOS>BOND
     1    1    2 1
     2    1   28 1
     3    1   29 1
     4    1   30 1
     5    2    3 1
     6    2    4 1
     7    2    6 1
     8    4    5 2
     9    4   38 1
    10    6    7 1
    11    7   12 ar
    12    7    8 ar
    13    8    9 ar
    14    8   31 1
    15    9   10 ar
    16    9   32 1
    17   10   11 ar
    18   10   33 1
    19   11   12 ar
    20   11   13 1
    21   12   34 1
    22   13   14 2
    23   13   35 1
    24   14   20 1
    25   14   15 1
    26   15   16 2
    27   15   17 am
    28   17   18 1
    29   17   21 1
    30   18   19 2
    31   18   20 1
    32   21   22 1
    33   21   23 1
    34   21   26 1
    35   23   24 1
    36   23   36 1
    37   23   37 1
    38   24   25 2
    39   24   39 1
    40   26   27 2
    41   26   40 1
@<TRIPOS>MOLECULE
ZINC35102959
   36    37     0     0     0
SMALL
USER_CHARGES

@<TRIPOS>ATOM
      1 C1         -0.0187    1.5258    0.0104 C.3       1 <0>        -0.1436
      2 C2          0.0021   -0.0041    0.0020 C.3       1 <0>        -0.0566
      3 H1          0.5123   -0.3556   -0.8948 H         1 <0>         0.0834
      4 C3          0.7421   -0.5109    1.2415 C.3       1 <0>        -0.0698
      5 H2          1.7338   -0.0626    1.3025 H         1 <0>         0.0786
      6 C4         -0.0719   -0.2026    2.5227 C.3       1 <0>        -0.1214
      7 C5          0.4581   -1.2565    3.5264 C.3       1 <0>        -0.0931
      8 C6          0.6621   -2.5242    2.6713 C.3       1 <0>        -0.1568
      9 H3         -0.2123   -3.1705    2.7472 H         1 <0>         0.0625
     10 C7          0.8458   -2.0499    1.2168 C.3       1 <0>        -0.1142
     11 C8          1.8920   -3.2642    3.1305 C.2       1 <0>         0.4977
     12 O1          1.9527   -3.6990    4.2679 O.co2     1 <0>        -0.7082
     13 O2          2.8263   -3.4282    2.3645 O.co2     1 <0>        -0.6991
     14 S1         -1.6997   -0.6320    0.0149 S.3       1 <0>        -0.2166
     15 C9         -2.3841   -0.0774   -1.5709 C.3       1 <0>        -0.0122
     16 C10        -3.8137   -0.5390   -1.6900 C.2       1 <0>        -0.0301
     17 C11        -4.8997    0.1566   -1.2832 C.2       1 <0>        -0.1933
     18 C12        -6.0263   -0.6249   -1.5756 C.2       1 <0>        -0.2001
     19 C13        -5.5595   -1.7832   -2.1588 C.2       1 <0>        -0.0337
     20 O3         -4.2134   -1.7007   -2.2204 O.3       1 <0>        -0.1437
     21 C14        -6.3763   -2.8988   -2.6316 C.2       1 <0>         0.5591
     22 O4         -7.5957   -2.8536   -2.5246 O.co2     1 <0>        -0.6645
     23 O5         -5.8416   -3.8792   -3.1350 O.co2     1 <0>        -0.6680
     24 H4          1.0039    1.9031    0.0027 H         1 <0>         0.0598
     25 H5         -0.5459    1.8868   -0.8726 H         1 <0>         0.0499
     26 H6         -0.5289    1.8773    0.9072 H         1 <0>         0.0677
     27 H7          0.1344    0.8071    2.8778 H         1 <0>         0.0547
     28 H8         -1.1385   -0.3403    2.3452 H         1 <0>         0.0780
     29 H9          1.4047   -0.9306    3.9574 H         1 <0>         0.0556
     30 H10        -0.2763   -1.4396    4.3107 H         1 <0>         0.0546
     31 H11         0.0604   -2.4669    0.5865 H         1 <0>         0.0625
     32 H12         1.8244   -2.3522    0.8438 H         1 <0>         0.0843
     33 H13        -2.3483    1.0108   -1.6214 H         1 <0>         0.0990
     34 H14        -1.7972   -0.4986   -2.3871 H         1 <0>         0.0901
     35 H15        -4.8993    1.1320   -0.8194 H         1 <0>         0.1408
     36 H16        -7.0575   -0.3697   -1.3813 H         1 <0>         0.1466
@<TRIPOS>BOND
     1    1    2 1
     2    1   24 1
     3    1   25 1
     4    1   26 1
     5    2    3 1
     6    2    4 1
     7    2   14 1
     8    4    5 1
     9    4   10 1
    10    4    6 1
    11    6    7 1
    12    6   27 1
    13    6   28 1
    14    7    8 1
    15    7   29 1
    16    7   30 1
    17    8    9 1
    18    8   10 1
    19    8   11 1
    20   10   31 1
    21   10   32 1
    22   11   12 2
    23   11   13 1
    24   14   15 1
    25   15   16 1
    26   15   33 1
    27   15   34 1
    28   16   20 1
    29   16   17 2
    30   17   18 1
    31   17   35 1
    32   18   19 2
    33   18   36 1
    34   19   20 1
    35   19   21 1
    36   21   22 2
    37   21   23 1
@<TRIPOS>MOLECULE
ZINC39142956
   35    36     0     0     0
SMALL
USER_CHARGES

@<TRIPOS>ATOM
      1 C1         -0.0169    1.3959    0.0097 C.ar      1 <0>         0.0258
      2 C2          1.2019    2.0735    0.0017 C.ar      1 <0>        -0.2372
      3 C3          2.3999    1.3296   -0.0137 C.ar      1 <0>         0.2306
      4 N1          2.3757    0.0045   -0.0210 N.ar      1 <0>        -0.5911
      5 C4          1.2416   -0.6725   -0.0139 C.ar      1 <0>         0.4583
      6 O1          1.2710   -2.0248   -0.0214 O.3       1 <0>        -0.6344
      7 C5          0.0021   -0.0041    0.0020 C.ar      1 <0>        -0.2896
      8 C6         -1.2535   -0.7651    0.0104 C.2       1 <0>         0.5358
      9 O2         -2.3262   -0.1759    0.0242 O.co2     1 <0>        -0.7336
     10 O3         -1.2275   -1.9887    0.0036 O.co2     1 <0>        -0.6708
     11 S1          3.9474    2.1719   -0.0240 S.3       1 <0>        -0.1032
     12 C7          5.1742    0.8358   -0.0429 C.3       1 <0>        -0.0833
     13 C8          6.5816    1.4358   -0.0531 C.3       1 <0>        -0.0979
     14 S2          7.8084    0.0996   -0.0720 S.3       1 <0>         0.0911
     15 C9          9.2664    0.8932   -0.0816 C.2       1 <0>         0.1707
     16 N2          9.3039    2.2029   -0.0695 N.2       1 <0>        -0.5643
     17 C10        10.4477    2.8946   -0.0765 C.2       1 <0>         0.5139
     18 O4         10.3959    4.1110   -0.0638 O.2       1 <0>        -0.4067
     19 C11        11.7710    2.2414   -0.0985 C.2       1 <0>        -0.2120
     20 C12        11.8559    0.8908   -0.1124 C.2       1 <0>        -0.0903
     21 C13        10.5586    0.1091   -0.0982 C.3       1 <0>         0.0323
     22 H1         10.5660   -0.5396    0.7777 H         1 <0>         0.1568
     23 C14        10.5459   -0.7543   -1.2903 C.1       1 <0>         0.2182
     24 N3         10.5361   -1.4206   -2.2103 N.1       1 <0>        -0.4046
     25 C15        12.9971    3.0581   -0.1057 C.2       1 <0>         0.5275
     26 O5         14.0932    2.5155   -0.1239 O.co2     1 <0>        -0.6923
     27 O6         12.9190    4.2787   -0.0935 O.co2     1 <0>        -0.6550
     28 C16         1.2365    3.5051    0.0086 C.1       1 <0>         0.3063
     29 N4          1.2640    4.6408    0.0141 N.1       1 <0>        -0.5089
     30 H2         -0.9514    1.9371    0.0260 H         1 <0>         0.1192
     31 H3          5.0499    0.2159    0.8450 H         1 <0>         0.1028
     32 H4          5.0329    0.2254   -0.9348 H         1 <0>         0.1017
     33 H5          6.7059    2.0557   -0.9410 H         1 <0>         0.1099
     34 H6          6.7229    2.0461    0.8389 H         1 <0>         0.1121
     35 H7         12.8123    0.3894   -0.1289 H         1 <0>         0.1621
@<TRIPOS>BOND
     1    1    7 ar
     2    1    2 ar
     3    1   30 1
     4    2    3 ar
     5    2   28 1
     6    3    4 ar
     7    3   11 1
     8    4    5 ar
     9    5    6 1
    10    5    7 ar
    11    7    8 1
    12    8    9 2
    13    8   10 1
    14   11   12 1
    15   12   13 1
    16   12   31 1
    17   12   32 1
    18   13   14 1
    19   13   33 1
    20   13   34 1
    21   14   15 1
    22   15   21 1
    23   15   16 2
    24   16   17 1
    25   17   18 2
    26   17   19 1
    27   19   20 2
    28   19   25 1
    29   20   21 1
    30   20   35 1
    31   21   22 1
    32   21   23 1
    33   23   24 3
    34   25   26 2
    35   25   27 1
    36   28   29 3
@<TRIPOS>MOLECULE
ZINC40475625
   26    29     0     0     0
SMALL
USER_CHARGES

@<TRIPOS>ATOM
      1 C1         -0.0163    1.3513    0.0095 C.2       1 <0>        -0.1410
      2 C2          1.1833    2.0380    0.0017 C.2       1 <0>        -0.1606
      3 C3          2.3426    1.3358   -0.0131 C.2       1 <0>        -0.0763
      4 S1          1.7535   -0.3495   -0.0166 S.3       1 <0>         0.0440
      5 C4          0.0021   -0.0041    0.0020 C.2       1 <0>        -0.2055
      6 C5          3.7608    1.8454   -0.0244 C.3       1 <0>         0.1208
      7 H1          3.7596    2.9354   -0.0188 H         1 <0>         0.0953
      8 C6          4.4917    1.3341    1.1823 C.2       1 <0>        -0.2797
      9 C7          5.7708    0.8655    1.2911 C.2       1 <0>         0.1135
     10 N1          6.1150    0.4543    2.5098 N.2       1 <0>        -0.5549
     11 C8          5.2823    0.5211    3.5266 C.2       1 <0>         0.2781
     12 S2          5.5552    0.0340    5.1978 S.3       1 <0>        -0.7616
     13 S3          3.8921    1.1841    2.8445 S.3       1 <0>         0.0459
     14 S4          6.8621    0.8440   -0.1238 S.3       1 <0>        -0.0467
     15 C9          5.9266    1.9005   -1.2596 C.3       1 <0>        -0.1670
     16 H2          5.9679    2.9486   -0.9634 H         1 <0>         0.1172
     17 C10         4.4709    1.3444   -1.2552 C.3       1 <0>        -0.1296
     18 H3          4.5091    0.2554   -1.2268 H         1 <0>         0.0982
     19 C11         4.0047    1.7640   -2.6102 C.2       1 <0>         0.4874
     20 O1          2.7365    1.9935   -2.9827 O.3       1 <0>        -0.6241
     21 N2          5.0782    1.8667   -3.3717 N.2       1 <0>        -0.6973
     22 C12         6.2601    1.7147   -2.7157 C.2       1 <0>         0.5423
     23 O2          7.3497    1.4758   -3.1951 O.2       1 <0>        -0.5217
     24 H4         -0.9542    1.8866    0.0258 H         1 <0>         0.1225
     25 H5          1.1967    3.1179    0.0070 H         1 <0>         0.1254
     26 H6         -0.8275   -0.6955    0.0065 H         1 <0>         0.1754
@<TRIPOS>BOND
     1    1    5 2
     2    1    2 1
     3    1   24 1
     4    2    3 2
     5    2   25 1
     6    3    4 1
     7    3    6 1
     8    4    5 1
     9    5   26 1
    10    6    7 1
    11    6   17 1
    12    6    8 1
    13    8   13 1
    14    8    9 2
    15    9   10 1
    16    9   14 1
    17   10   11 2
    18   11   12 1
    19   11   13 1
    20   14   15 1
    21   15   16 1
    22   15   22 1
    23   15   17 1
    24   17   18 1
    25   17   19 1
    26   19   20 1
    27   19   21 2
    28   21   22 1
    29   22   23 2
@<TRIPOS>MOLECULE
ZINC16900459
   42    43     0     0     0
SMALL
USER_CHARGES

@<TRIPOS>ATOM
      1 C1          0.8226    1.2212   -0.5496 C.3       1 <0>        -0.1640
      2 C2          0.8272   -0.2817   -0.6610 C.2       1 <0>         0.5032
      3 O1          1.0509   -0.9617    0.3180 O.2       1 <0>        -0.5564
      4 N1          0.5827   -0.8701   -1.8486 N.am      1 <0>        -0.6914
      5 C3          0.5871   -2.3311   -1.9570 C.3       1 <0>         0.0932
      6 H1          0.1900   -2.7647   -1.0392 H         1 <0>         0.0939
      7 C4         -0.2834   -2.7574   -3.1408 C.3       1 <0>        -0.0768
      8 S1         -1.9820   -2.1754   -2.8828 S.3       1 <0>        -0.2033
      9 C5         -2.8724   -2.7544   -4.3534 C.3       1 <0>        -0.1110
     10 H2         -2.3747   -2.4127   -5.2610 H         1 <0>         0.1356
     11 C6         -4.3379   -2.2748   -4.3244 C.3       1 <0>        -0.1251
     12 C7         -5.1321   -3.5625   -4.3014 C.2       1 <0>         0.5268
     13 O2         -6.3415   -3.6412   -4.2756 O.2       1 <0>        -0.4729
     14 N2         -4.2875   -4.6012   -4.3144 N.am      1 <0>        -0.5077
     15 C8         -2.9890   -4.2630   -4.3457 C.2       1 <0>         0.5268
     16 O3         -2.0581   -5.0393   -4.3639 O.2       1 <0>        -0.4483
     17 C9         -4.7235   -5.9342   -4.2988 C.ar      1 <0>         0.0534
     18 C10        -4.4785   -6.7287   -3.1892 C.ar      1 <0>        -0.0597
     19 C11        -4.9108   -8.0576   -3.1697 C.ar      1 <0>        -0.1507
     20 C12        -5.5896   -8.5840   -4.2679 C.ar      1 <0>        -0.0301
     21 C13        -5.8343   -7.7815   -5.3816 C.ar      1 <0>        -0.1550
     22 C14        -5.4031   -6.4521   -5.3907 C.ar      1 <0>        -0.0631
     23 C15        -6.5523   -8.3334   -6.5467 C.2       1 <0>         0.5319
     24 O4         -6.9332   -9.4954   -6.5360 O.co2     1 <0>        -0.6892
     25 O5         -6.7664   -7.6288   -7.5230 O.co2     1 <0>        -0.7014
     26 C16        -4.6487   -8.9026   -1.9886 C.2       1 <0>         0.5292
     27 O6         -4.0529   -8.4401   -1.0260 O.co2     1 <0>        -0.6927
     28 O7         -5.0273  -10.0652   -1.9724 O.co2     1 <0>        -0.6913
     29 C17         1.9983   -2.8146   -2.1713 C.2       1 <0>         0.5019
     30 O8          2.3355   -3.9122   -1.7614 O.co2     1 <0>        -0.6788
     31 O9          2.8028   -2.1082   -2.7546 O.co2     1 <0>        -0.6920
     32 H3          1.8259    1.6026   -0.7390 H         1 <0>         0.0854
     33 H4          0.1312    1.6377   -1.2821 H         1 <0>         0.0740
     34 H5          0.5073    1.5102    0.4530 H         1 <0>         0.0828
     35 H6          0.4037   -0.3263   -2.6317 H         1 <0>         0.3941
     36 H7          0.1138   -2.3238   -4.0586 H         1 <0>         0.0863
     37 H8         -0.2800   -3.8444   -3.2214 H         1 <0>         0.1117
     38 H9         -4.5319   -1.6882   -3.4264 H         1 <0>         0.1253
     39 H10        -4.5701   -1.6968   -5.2189 H         1 <0>         0.1268
     40 H11        -3.9527   -6.3201   -2.3390 H         1 <0>         0.1236
     41 H12        -5.9247   -9.6107   -4.2562 H         1 <0>         0.1360
     42 H13        -5.5961   -5.8285   -6.2511 H         1 <0>         0.1192
@<TRIPOS>BOND
     1    1    2 1
     2    1   32 1
     3    1   33 1
     4    1   34 1
     5    2    3 2
     6    2    4 am
     7    4    5 1
     8    4   35 1
     9    5    6 1
    10    5    7 1
    11    5   29 1
    12    7    8 1
    13    7   36 1
    14    7   37 1
    15    8    9 1
    16    9   10 1
    17    9   15 1
    18    9   11 1
    19   11   12 1
    20   11   38 1
    21   11   39 1
    22   12   13 2
    23   12   14 am
    24   14   15 am
    25   14   17 1
    26   15   16 2
    27   17   22 ar
    28   17   18 ar
    29   18   19 ar
    30   18   40 1
    31   19   20 ar
    32   19   26 1
    33   20   21 ar
    34   20   41 1
    35   21   22 ar
    36   21   23 1
    37   22   42 1
    38   23   24 2
    39   23   25 1
    40   26   27 2
    41   26   28 1
    42   29   30 2
    43   29   31 1
@<TRIPOS>MOLECULE
ZINC05740897
   33    34     0     0     0
SMALL
USER_CHARGES
3-[2-carboxyethyl-(2-oxo-3H-benzooxazol-6-yl)-amino]propanoic acid
@<TRIPOS>ATOM
      1 C1         -3.4163    2.5475    0.0310 C.ar      1 <0>        -0.1790
      2 C2         -2.5078    1.5074    0.0214 C.ar      1 <0>        -0.0464
      3 C3         -1.1486    1.7770    0.0164 C.ar      1 <0>        -0.0242
      4 C4         -0.6958    3.0965    0.0245 C.ar      1 <0>         0.0894
      5 C5         -1.6094    4.1378    0.0383 C.ar      1 <0>        -0.1745
      6 C6         -2.9696    3.8635    0.0359 C.ar      1 <0>         0.2548
      7 N1         -3.8933    4.9141    0.0461 N.pl3     1 <0>        -0.6078
      8 C7         -5.3298    4.6264    0.0518 C.3       1 <0>         0.1365
      9 C8         -5.8226    4.5185    1.4962 C.3       1 <0>        -0.1739
     10 C9         -7.3003    4.2225    1.5021 C.2       1 <0>         0.4659
     11 O1         -7.8979    4.1095    0.4580 O.co2     1 <0>        -0.6423
     12 C10        -3.4242    6.3020    0.0512 C.3       1 <0>         0.1334
     13 C11        -3.2682    6.7929   -1.3895 C.3       1 <0>        -0.1735
     14 C12        -2.7856    8.2205   -1.3842 C.2       1 <0>         0.4658
     15 O2         -2.5869    8.7872   -0.3358 O.co2     1 <0>        -0.6418
     16 O3          0.6592    3.0574    0.0117 O.3       1 <0>        -0.2389
     17 C13         1.0645    1.7779    0.0014 C.2       1 <0>         0.6352
     18 O4          2.2230    1.4085   -0.0118 O.2       1 <0>        -0.5152
     19 N2         -0.0111    0.9658    0.0074 N.am      1 <0>        -0.6433
     20 H1          0.0021   -0.0041    0.0020 H         1 <0>         0.4350
     21 H2         -4.4758    2.3379    0.0345 H         1 <0>         0.1432
     22 H3         -2.8562    0.4851    0.0173 H         1 <0>         0.1298
     23 H4         -1.2637    5.1610    0.0406 H         1 <0>         0.1439
     24 H5         -5.8634    5.4304   -0.4550 H         1 <0>         0.0807
     25 H6         -5.5139    3.6852   -0.4662 H         1 <0>         0.0766
     26 H7         -5.2890    3.7145    2.0031 H         1 <0>         0.0663
     27 H8         -5.6385    5.4597    2.0142 H         1 <0>         0.0687
     28 H9         -4.1484    6.9284    0.5721 H         1 <0>         0.0809
     29 H10        -2.4622    6.3585    0.5605 H         1 <0>         0.0764
     30 H11        -2.5440    6.1665   -1.9103 H         1 <0>         0.0660
     31 H12        -4.2302    6.7364   -1.8988 H         1 <0>         0.0687
     32 O5         -7.9525    4.0845    2.6671 O.co2     1 <0>        -0.7782
     33 O6         -2.5766    8.8626   -2.5443 O.co2     1 <0>        -0.7783
@<TRIPOS>BOND
     1    1    6 ar
     2    1    2 ar
     3    1   21 1
     4    2    3 ar
     5    2   22 1
     6    3   19 1
     7    3    4 ar
     8    4    5 ar
     9    4   16 1
    10    5    6 ar
    11    5   23 1
    12    6    7 1
    13    7    8 1
    14    7   12 1
    15    8    9 1
    16    8   24 1
    17    8   25 1
    18    9   10 1
    19    9   26 1
    20    9   27 1
    21   10   11 2
    22   10   32 1
    23   12   13 1
    24   12   28 1
    25   12   29 1
    26   13   14 1
    27   13   30 1
    28   13   31 1
    29   14   15 2
    30   14   33 1
    31   16   17 1
    32   17   18 2
    33   17   19 am
    34   19   20 1
@<TRIPOS>MOLECULE
ZINC37015036
   31    31     0     0     0
SMALL
USER_CHARGES

@<TRIPOS>ATOM
      1 C1         -0.0167    1.3790    0.0096 C.ar      1 <0>        -0.1142
      2 C2          1.1861    2.0905    0.0020 C.ar      1 <0>        -0.1472
      3 C3          2.4016    1.3993   -0.0134 C.ar      1 <0>         0.0631
      4 C4          2.4094    0.0168   -0.0209 C.ar      1 <0>        -0.1437
      5 C5          1.2174   -0.6853   -0.0132 C.ar      1 <0>         0.0013
      6 C6          0.0021   -0.0041    0.0020 C.ar      1 <0>         0.2498
      7 N1         -1.2011   -0.7200    0.0101 N.2       1 <0>        -1.0991
      8 S1         -1.1794   -2.3758    0.0010 S.o2      1 <0>         2.5495
      9 O1         -0.5842   -2.7238   -1.2415 O.2       1 <0>        -1.0235
     10 O2         -0.5596   -2.7371    1.2276 O.2       1 <0>        -1.0235
     11 C7         -2.9262   -2.8650    0.0157 C.3       1 <0>        -0.5994
     12 C8         -3.0283   -4.3916    0.0086 C.3       1 <0>        -0.0843
     13 C9         -4.5016   -4.8042    0.0210 C.3       1 <0>        -0.1737
     14 C10        -4.6022   -6.3078    0.0139 C.2       1 <0>         0.4900
     15 O3         -3.5895   -6.9865    0.0002 O.co2     1 <0>        -0.6962
     16 O4         -5.6964   -6.8456    0.0219 O.co2     1 <0>        -0.7144
     17 F1          1.2318   -2.0362   -0.0211 F         1 <0>        -0.1218
     18 F2          3.5674    2.0820   -0.0213 F         1 <0>        -0.1363
     19 C11         1.1735    3.5662    0.0095 C.2       1 <0>         0.5730
     20 O5          2.2212    4.1831    0.0028 O.2       1 <0>        -0.5458
     21 N2          0.0006    4.2300    0.0238 N.am      1 <0>        -0.8538
     22 H1         -0.9583    1.9077    0.0259 H         1 <0>         0.1338
     23 H2          3.3485   -0.5165   -0.0330 H         1 <0>         0.1340
     24 H3         -3.4057   -2.4730    0.9127 H         1 <0>         0.1132
     25 H4         -3.4234   -2.4635   -0.8672 H         1 <0>         0.1133
     26 H5         -2.5488   -4.7836   -0.8883 H         1 <0>         0.0694
     27 H6         -2.5311   -4.7932    0.8915 H         1 <0>         0.0694
     28 H7         -4.9811   -4.4122    0.9179 H         1 <0>         0.0577
     29 H8         -4.9988   -4.4026   -0.8620 H         1 <0>         0.0577
     30 H9         -0.8352    3.7378    0.0292 H         1 <0>         0.4046
     31 H10        -0.0077    5.2000    0.0288 H         1 <0>         0.3970
@<TRIPOS>BOND
     1    1    6 ar
     2    1    2 ar
     3    1   22 1
     4    2    3 ar
     5    2   19 1
     6    3    4 ar
     7    3   18 1
     8    4    5 ar
     9    4   23 1
    10    5    6 ar
    11    5   17 1
    12    6    7 1
    13    7    8 1
    14    8    9 2
    15    8   10 2
    16    8   11 1
    17   11   12 1
    18   11   24 1
    19   11   25 1
    20   12   13 1
    21   12   26 1
    22   12   27 1
    23   13   14 1
    24   13   28 1
    25   13   29 1
    26   14   15 2
    27   14   16 1
    28   19   20 2
    29   19   21 am
    30   21   30 1
    31   21   31 1
@<TRIPOS>MOLECULE
ZINC39125873
   14    14     0     0     0
SMALL
USER_CHARGES

@<TRIPOS>ATOM
      1 C1         -0.0165    1.3634    0.0095 C.2       1 <0>         0.1248
      2 N1          1.2220    1.7681   -0.0001 N.2       1 <0>        -0.3195
      3 N2          2.0163    0.7578   -0.0131 N.2       1 <0>        -0.3384
      4 C2          1.3213   -0.3559   -0.0125 C.2       1 <0>         0.3519
      5 S1          1.9684   -1.9947   -0.0280 S.3       1 <0>        -0.8262
      6 N3          0.0021   -0.0041    0.0020 N.pl3     1 <0>        -0.2956
      7 N4         -1.1031   -0.8651    0.0086 N.am      1 <0>        -0.4889
      8 C3         -2.3519   -0.3586    0.0240 C.2       1 <0>         0.4512
      9 O1         -2.5191    0.8430    0.0322 O.2       1 <0>        -0.5448
     10 C4         -3.5327   -1.2785    0.0311 C.2       1 <0>         0.5185
     11 O2         -4.6634   -0.8199    0.0451 O.co2     1 <0>        -0.6395
     12 O3         -3.3646   -2.4871    0.0229 O.co2     1 <0>        -0.6558
     13 H1         -0.8949    1.9914    0.0253 H         1 <0>         0.2196
     14 H2         -0.9694   -1.8258    0.0021 H         1 <0>         0.4427
@<TRIPOS>BOND
     1    1    6 1
     2    1    2 2
     3    1   13 1
     4    2    3 1
     5    3    4 2
     6    4    5 1
     7    4    6 1
     8    6    7 1
     9    7    8 am
    10    7   14 1
    11    8    9 2
    12    8   10 1
    13   10   11 2
    14   10   12 1
@<TRIPOS>MOLECULE
ZINC45820101
   14    14     0     0     0
SMALL
USER_CHARGES

@<TRIPOS>ATOM
      1 C1         -0.0162    1.3466    0.0094 C.2       1 <0>         0.4641
      2 S1          1.3947    2.4020    0.0016 S.3       1 <0>        -0.8267
      3 N1         -1.2738    1.7355    0.0178 N.2       1 <0>        -0.5869
      4 C2         -2.0759    0.6650    0.0160 C.2       1 <0>         0.4322
      5 N2         -1.3391   -0.4197    0.0064 N.2       1 <0>        -0.3405
      6 N3          0.0021   -0.0041    0.0020 N.pl3     1 <0>        -0.5117
      7 N4         -3.4711    0.6974    0.0231 N.am      1 <0>        -0.6130
      8 C3         -4.1719   -0.4539    0.0203 C.2       1 <0>         0.4463
      9 O1         -3.5897   -1.5186    0.0116 O.2       1 <0>        -0.5035
     10 C4         -5.6669   -0.4192    0.0279 C.2       1 <0>         0.5082
     11 O2         -6.3014   -1.4617    0.0254 O.co2     1 <0>        -0.6482
     12 O3         -6.2524    0.6515    0.0366 O.co2     1 <0>        -0.6689
     13 H1         -3.9365    1.5484    0.0300 H         1 <0>         0.4228
     14 H2          0.7868   -0.5742   -0.0085 H         1 <0>         0.4258
@<TRIPOS>BOND
     1    1    6 1
     2    1    2 1
     3    1    3 2
     4    3    4 1
     5    4    5 2
     6    4    7 1
     7    5    6 1
     8    6   14 1
     9    7    8 am
    10    7   13 1
    11    8    9 2
    12    8   10 1
    13   10   11 2
    14   10   12 1
@<TRIPOS>MOLECULE
ZINC62876112
   36    37     0     0     0
SMALL
USER_CHARGES

@<TRIPOS>ATOM
      1 C1         -0.0189    1.5273    0.0140 C.3       1 <0>        -0.1610
      2 C2          0.0012   -0.0026    0.0057 C.3       1 <0>        -0.0855
      3 C3          0.7158   -0.4965   -1.2537 C.3       1 <0>        -0.1396
      4 C4          0.7398   -2.0267   -1.2606 C.3       1 <0>        -0.0827
      5 C5          1.4524   -2.5330   -0.0044 C.3       1 <0>        -0.1387
      6 C6          2.8982   -2.0268   -0.0033 C.3       1 <0>         0.1147
      7 N1          2.8873   -0.5643   -0.1427 N.am      1 <0>        -0.6244
      8 C7          2.1533    0.0328   -1.2668 C.3       1 <0>         0.1562
      9 C8          3.5379    0.2149    0.7439 C.2       1 <0>         0.7082
     10 O1          3.5990    1.4164    0.5674 O.2       1 <0>        -0.5970
     11 N2          4.1207   -0.3377    1.8262 N.am      1 <0>        -0.7373
     12 C9          4.7313    0.5182    2.8465 C.3       1 <0>         0.2580
     13 C10         5.3082   -0.3402    3.9426 C.2       1 <0>         0.0378
     14 N3          4.6820   -0.7540    5.0346 N.2       1 <0>        -0.3726
     15 N4          5.5152   -1.4631    5.7167 N.2       1 <0>        -0.1995
     16 N5          6.6393   -1.5073    5.0903 N.2       1 <0>        -0.2002
     17 N6          6.5377   -0.8314    3.9970 N.2       1 <0>        -0.3742
     18 C11        -0.0146    0.0013   -2.4743 C.2       1 <0>         0.5087
     19 O2         -0.1448    1.1991   -2.6606 O.co2     1 <0>        -0.6865
     20 O3         -0.4752   -0.7939   -3.2756 O.co2     1 <0>        -0.7006
     21 H1          1.0039    1.9041    0.0051 H         1 <0>         0.0554
     22 H2         -0.5468    1.8885   -0.8686 H         1 <0>         0.0908
     23 H3         -0.5280    1.8791    0.9113 H         1 <0>         0.0238
     24 H4          0.5292   -0.3638    0.8883 H         1 <0>         0.0466
     25 H5         -1.0215   -0.3794    0.0146 H         1 <0>         0.0424
     26 H6         -0.2821   -2.4058   -1.2762 H         1 <0>         0.0589
     27 H7          1.2706   -2.3776   -2.1456 H         1 <0>         0.0570
     28 H8          0.9363   -2.1620    0.8811 H         1 <0>         0.0663
     29 H9          1.4485   -3.6230    0.0016 H         1 <0>         0.0626
     30 H10         3.3806   -2.3009    0.9349 H         1 <0>         0.0697
     31 H11         3.4410   -2.4695   -0.8386 H         1 <0>         0.0621
     32 H12         2.6353   -0.2419   -2.2051 H         1 <0>         0.0498
     33 H13         2.1442    1.1177   -1.1622 H         1 <0>         0.0995
     34 H14         4.1360   -1.3020    1.9296 H         1 <0>         0.3930
     35 H15         5.5253    1.1126    2.3945 H         1 <0>         0.0696
     36 H16         3.9742    1.1814    3.2649 H         1 <0>         0.0688
@<TRIPOS>BOND
     1    1    2 1
     2    1   21 1
     3    1   22 1
     4    1   23 1
     5    2    3 1
     6    2   24 1
     7    2   25 1
     8    3    8 1
     9    3    4 1
    10    3   18 1
    11    4    5 1
    12    4   26 1
    13    4   27 1
    14    5    6 1
    15    5   28 1
    16    5   29 1
    17    6    7 1
    18    6   30 1
    19    6   31 1
    20    7    8 1
    21    7    9 am
    22    8   32 1
    23    8   33 1
    24    9   10 2
    25    9   11 am
    26   11   12 1
    27   11   34 1
    28   12   13 1
    29   12   35 1
    30   12   36 1
    31   13   17 2
    32   13   14 1
    33   14   15 1
    34   15   16 2
    35   16   17 1
    36   18   19 2
    37   18   20 1
@<TRIPOS>MOLECULE
ZINC13422180
   34    34     0     0     0
SMALL
USER_CHARGES
4-[2-(ethylcarbamoylamino)-2-oxo-ethoxy]benzene-1,3-dicarboxylic acid
@<TRIPOS>ATOM
      1 C1          6.6364   -6.1090   -0.0978 C.3       1 <0>        -0.1631
      2 C2          6.6990   -4.5803   -0.0897 C.3       1 <0>         0.1297
      3 N1          5.3390   -4.0360   -0.0733 N.am      1 <0>        -0.7433
      4 C3          5.1471   -2.7020   -0.0639 C.2       1 <0>         0.6933
      5 O1          6.1024   -1.9506   -0.0689 O.2       1 <0>        -0.5272
      6 N2          3.8959   -2.2012   -0.0488 N.am      1 <0>        -0.6916
      7 C4          3.7041   -0.8672   -0.0393 C.2       1 <0>         0.5082
      8 O2          4.6570   -0.1177   -0.0443 O.2       1 <0>        -0.4157
      9 C5          2.3051   -0.3072   -0.0225 C.3       1 <0>         0.0398
     10 O3          2.3635    1.1206   -0.0149 O.3       1 <0>        -0.2476
     11 C6          1.1828    1.7843    0.0003 C.ar      1 <0>         0.1449
     12 C7         -0.0126    1.0758    0.0080 C.ar      1 <0>        -0.2502
     13 C8         -1.2149    1.7450    0.0173 C.ar      1 <0>        -0.0414
     14 C9         -1.2431    3.1450    0.0308 C.ar      1 <0>        -0.1728
     15 C10        -0.0508    3.8658    0.0233 C.ar      1 <0>        -0.0017
     16 C11         1.1667    3.1884    0.0080 C.ar      1 <0>        -0.1609
     17 C12         2.4333    3.9431    0.0005 C.2       1 <0>         0.4930
     18 O4          3.4937    3.3501   -0.0124 O.co2     1 <0>        -0.6145
     19 C13        -2.5351    3.8565    0.0475 C.2       1 <0>         0.4990
     20 O5         -2.5596    5.0713    0.0546 O.co2     1 <0>        -0.6336
     21 H1          7.6483   -6.5140   -0.1100 H         1 <0>         0.0738
     22 H2          6.1168   -6.4561    0.7953 H         1 <0>         0.0614
     23 H3          6.0995   -6.4460   -0.9845 H         1 <0>         0.0614
     24 H4          7.2186   -4.2332   -0.9828 H         1 <0>         0.0679
     25 H5          7.2359   -4.2433    0.7970 H         1 <0>         0.0679
     26 H6          4.5766   -4.6356   -0.0693 H         1 <0>         0.3966
     27 H7          3.1335   -2.8009   -0.0448 H         1 <0>         0.4069
     28 H8          1.7855   -0.6543    0.8706 H         1 <0>         0.0897
     29 H9          1.7682   -0.6442   -0.9092 H         1 <0>         0.0897
     30 H10         0.0021   -0.0041    0.0020 H         1 <0>         0.1145
     31 H11        -2.1404    1.1882    0.0183 H         1 <0>         0.1259
     32 H12        -0.0703    4.9456    0.0289 H         1 <0>         0.1426
     33 O6          2.4149    5.2904    0.0079 O.co2     1 <0>        -0.7677
     34 O7         -3.6881    3.1594    0.0547 O.co2     1 <0>        -0.7751
@<TRIPOS>BOND
     1    1    2 1
     2    1   21 1
     3    1   22 1
     4    1   23 1
     5    2    3 1
     6    2   24 1
     7    2   25 1
     8    3    4 am
     9    3   26 1
    10    4    5 2
    11    4    6 am
    12    6    7 am
    13    6   27 1
    14    7    8 2
    15    7    9 1
    16    9   10 1
    17    9   28 1
    18    9   29 1
    19   10   11 1
    20   11   16 ar
    21   11   12 ar
    22   12   13 ar
    23   12   30 1
    24   13   14 ar
    25   13   31 1
    26   14   15 ar
    27   14   19 1
    28   15   16 ar
    29   15   32 1
    30   16   17 1
    31   17   18 2
    32   17   33 1
    33   19   20 2
    34   19   34 1
@<TRIPOS>MOLECULE
ZINC35426396
   25    26     0     0     0
SMALL
USER_CHARGES

@<TRIPOS>ATOM
      1 C1         -0.0168    1.3877    0.0097 C.2       1 <0>        -0.1160
      2 C2          1.2051    2.0023    0.0013 C.2       1 <0>        -0.2276
      3 C3          2.3390    1.2190   -0.0137 C.2       1 <0>        -0.0313
      4 S1          1.7497   -0.3542   -0.0165 S.3       1 <0>         0.2919
      5 C4          0.0021   -0.0041    0.0020 C.2       1 <0>        -0.2476
      6 C5         -1.0838   -0.9064    0.0082 C.2       1 <0>         0.5556
      7 O1         -2.2336   -0.4816    0.0222 O.co2     1 <0>        -0.6877
      8 O2         -0.8768   -2.1146   -0.0004 O.co2     1 <0>        -0.6902
      9 N1          3.6619    1.6340   -0.0241 N.am      1 <0>        -0.6109
     10 C6          4.6541    0.7220   -0.0385 C.2       1 <0>         0.5463
     11 O3          4.3894   -0.4636   -0.0423 O.2       1 <0>        -0.4965
     12 C7          6.0707    1.1664   -0.0496 C.2       1 <0>         0.0265
     13 C8          6.3872    2.5263   -0.0454 C.2       1 <0>        -0.3496
     14 C9          7.7191    2.9174   -0.0555 C.2       1 <0>         0.4793
     15 N2          8.7060    1.9930   -0.0699 N.am      1 <0>        -0.6001
     16 C10         8.4238    0.6705   -0.0743 C.2       1 <0>         0.4792
     17 C11         7.1072    0.2308   -0.0587 C.2       1 <0>        -0.3058
     18 O4          9.4221   -0.2218   -0.0886 O.2       1 <0>        -0.6702
     19 O5          8.0291    4.2200   -0.0515 O.3       1 <0>        -0.6778
     20 H1         -0.9399    1.9481    0.0258 H         1 <0>         0.1334
     21 H2          1.2799    3.0797    0.0060 H         1 <0>         0.1190
     22 H3          3.8732    2.5806   -0.0211 H         1 <0>         0.4163
     23 H4          5.6021    3.2679   -0.0346 H         1 <0>         0.1252
     24 H5          6.8863   -0.8264   -0.0577 H         1 <0>         0.1390
     25 H6          9.6315    2.2833   -0.0774 H         1 <0>         0.3996
@<TRIPOS>BOND
     1    1    5 2
     2    1    2 1
     3    1   20 1
     4    2    3 2
     5    2   21 1
     6    3    4 1
     7    3    9 1
     8    4    5 1
     9    5    6 1
    10    6    7 2
    11    6    8 1
    12    9   10 am
    13    9   22 1
    14   10   11 2
    15   10   12 1
    16   12   13 1
    17   12   17 2
    18   13   14 2
    19   13   23 1
    20   14   15 1
    21   14   19 1
    22   15   25 1
    23   15   16 am
    24   16   17 1
    25   16   18 2
    26   17   24 1
@<TRIPOS>MOLECULE
ZINC05544083
   37    39     0     0     0
SMALL
USER_CHARGES

@<TRIPOS>ATOM
      1 C1          1.6471    1.4088    0.1305 C.3       1 <0>        -0.1060
      2 C2          1.3967   -0.0766    0.0864 C.ar      1 <0>        -0.1236
      3 C3          1.6516   -0.7851   -1.0735 C.ar      1 <0>        -0.0989
      4 C4          1.4236   -2.1466   -1.1171 C.ar      1 <0>        -0.1374
      5 C5          0.9379   -2.8040    0.0056 C.ar      1 <0>         0.1895
      6 C6          0.6829   -2.0896    1.1689 C.ar      1 <0>        -0.1547
      7 C7          0.9180   -0.7292    1.2076 C.ar      1 <0>        -0.0940
      8 N1          0.7052   -4.1844   -0.0354 N.am      1 <0>        -0.4160
      9 C8          0.2320   -4.9210    0.9887 C.2       1 <0>         0.5350
     10 O1         -0.0666   -4.5146    2.0995 O.2       1 <0>        -0.5293
     11 C9          0.1468   -6.2637    0.5259 C.2       1 <0>        -0.3208
     12 C10        -0.2908   -7.3739    1.2423 C.2       1 <0>         0.2704
     13 C11        -0.4216   -8.6185    0.6001 C.2       1 <0>        -0.5460
     14 C12        -1.3853   -8.8113   -0.4194 C.2       1 <0>         0.5733
     15 N2         -1.4807  -10.0268   -1.0150 N.am      1 <0>        -0.6727
     16 H1         -2.1382  -10.1670   -1.7142 H         1 <0>         0.4185
     17 C13        -0.6758  -11.0386   -0.6489 C.2       1 <0>         0.7139
     18 O2         -0.7885  -12.1139   -1.2040 O.2       1 <0>        -0.5788
     19 N3          0.2508  -10.8943    0.3136 N.am      1 <0>        -0.6721
     20 H2          0.8151  -11.6465    0.5516 H         1 <0>         0.4185
     21 C14         0.4110   -9.7082    0.9529 C.2       1 <0>         0.5717
     22 O3          1.2605   -9.5832    1.8255 O.3       1 <0>        -0.5704
     23 O4         -2.1222   -7.8944   -0.7584 O.2       1 <0>        -0.5638
     24 C15         0.6161   -6.2343   -0.8646 C.2       1 <0>         0.1853
     25 N4          0.9232   -5.0026   -1.1455 N.2       1 <0>        -0.2921
     26 C16         0.7175   -7.4139   -1.7970 C.3       1 <0>        -0.0776
     27 H3          2.6716    1.5951    0.4528 H         1 <0>         0.0645
     28 H4          1.4958    1.8324   -0.8623 H         1 <0>         0.0616
     29 H5          0.9551    1.8732    0.8330 H         1 <0>         0.0620
     30 H6          2.0290   -0.2732   -1.9464 H         1 <0>         0.1223
     31 H7          1.6225   -2.6993   -2.0233 H         1 <0>         0.1322
     32 H8          0.3049   -2.5980    2.0436 H         1 <0>         0.1538
     33 H9          0.7242   -0.1739    2.1134 H         1 <0>         0.1235
     34 H10        -0.5300   -7.2797    2.2913 H         1 <0>         0.1149
     35 H11        -0.2477   -7.5838   -2.2743 H         1 <0>         0.0871
     36 H12         1.4692   -7.2106   -2.5597 H         1 <0>         0.0702
     37 H13         1.0042   -8.3004   -1.2314 H         1 <0>         0.0860
@<TRIPOS>BOND
     1    1    2 1
     2    1   27 1
     3    1   28 1
     4    1   29 1
     5    2    7 ar
     6    2    3 ar
     7    3    4 ar
     8    3   30 1
     9    4    5 ar
    10    4   31 1
    11    5    6 ar
    12    5    8 1
    13    6    7 ar
    14    6   32 1
    15    7   33 1
    16    8   25 1
    17    8    9 am
    18    9   10 2
    19    9   11 1
    20   11   12 2
    21   11   24 1
    22   12   13 1
    23   12   34 1
    24   13   21 2
    25   13   14 1
    26   14   15 am
    27   14   23 2
    28   15   16 1
    29   15   17 am
    30   17   18 2
    31   17   19 am
    32   19   20 1
    33   19   21 1
    34   21   22 1
    35   24   25 2
    36   24   26 1
    37   26   35 1
    38   26   36 1
    39   26   37 1
@<TRIPOS>MOLECULE
ZINC44928481
   22    23     0     0     0
SMALL
USER_CHARGES

@<TRIPOS>ATOM
      1 C1         -0.0187    1.5258    0.0104 C.3       1 <0>        -0.1401
      2 C2          1.3165    0.7789   -0.0063 C.3       1 <0>        -0.1820
      3 H1          1.8888    0.7918   -0.9339 H         1 <0>         0.1157
      4 C3          0.0021   -0.0041    0.0020 C.3       1 <0>        -0.1642
      5 H2         -0.2728   -0.5162    0.9241 H         1 <0>         0.1072
      6 C4         -0.4023   -0.6984   -1.2729 C.2       1 <0>         0.5193
      7 O1         -1.4525   -0.4067   -1.8192 O.co2     1 <0>        -0.6967
      8 O2          0.3206   -1.5520   -1.7579 O.co2     1 <0>        -0.6916
      9 C5          2.1323    0.7834    1.2608 C.2       1 <0>         0.5488
     10 O3          1.7391    0.1812    2.2373 O.2       1 <0>        -0.5566
     11 N1          3.2988    1.4568    1.3088 N.am      1 <0>        -0.7156
     12 C6          4.0919    1.4612    2.5406 C.3       1 <0>         0.2392
     13 C7          5.3397    2.2799    2.3317 C.2       1 <0>         0.0374
     14 N2          6.5082    1.8400    1.8877 N.2       1 <0>        -0.3727
     15 N3          7.3144    2.8455    1.8503 N.2       1 <0>        -0.1991
     16 N4          6.6920    3.8975    2.2549 N.2       1 <0>        -0.1999
     17 N5          5.4781    3.5793    2.5512 N.2       1 <0>        -0.3745
     18 H3         -0.3072    2.0201    0.9381 H         1 <0>         0.0864
     19 H4         -0.3248    2.0300   -0.9061 H         1 <0>         0.0969
     20 H5          3.6133    1.9385    0.5278 H         1 <0>         0.4004
     21 H6          3.5041    1.8948    3.3496 H         1 <0>         0.0704
     22 H7          4.3672    0.4387    2.7991 H         1 <0>         0.0713
@<TRIPOS>BOND
     1    1    4 1
     2    1    2 1
     3    1   18 1
     4    1   19 1
     5    2    3 1
     6    2    4 1
     7    2    9 1
     8    4    5 1
     9    4    6 1
    10    6    7 2
    11    6    8 1
    12    9   10 2
    13    9   11 am
    14   11   12 1
    15   11   20 1
    16   12   13 1
    17   12   21 1
    18   12   22 1
    19   13   17 2
    20   13   14 1
    21   14   15 1
    22   15   16 2
    23   16   17 1
@<TRIPOS>MOLECULE
ZINC19950144
   30    31     0     0     0
SMALL
USER_CHARGES

@<TRIPOS>ATOM
      1 C1         -0.0187    1.5258    0.0104 C.3       1 <0>        -0.1651
      2 C2          0.0021   -0.0041    0.0020 C.3       1 <0>         0.1412
      3 C3          0.7421   -0.5109    1.2415 C.3       1 <0>        -0.1660
      4 N1         -1.3723   -0.5112    0.0124 N.am      1 <0>        -0.5130
      5 C4         -1.8188   -1.3102   -1.0220 C.2       1 <0>         0.4641
      6 C5         -3.1409   -1.7753   -0.9739 C.2       1 <0>        -0.4321
      7 C6         -3.9494   -1.4420    0.0657 C.2       1 <0>         0.5040
      8 O1         -5.2209   -1.8912    0.1097 O.3       1 <0>        -0.6545
      9 N2         -3.4623   -0.6452    1.0707 N.am      1 <0>        -0.6511
     10 H1         -4.0351   -0.4039    1.8154 H         1 <0>         0.4158
     11 C7         -2.1930   -0.2015    1.0319 C.2       1 <0>         0.7127
     12 O2         -1.7803    0.4995    1.9355 O.2       1 <0>        -0.5827
     13 C8         -3.3220   -2.6063   -2.2229 C.3       1 <0>        -0.0462
     14 H2         -4.0982   -2.1821   -2.8598 H         1 <0>         0.0848
     15 C9         -1.9643   -2.5074   -2.8919 C.2       1 <0>         0.5225
     16 O3         -1.6355   -3.0257   -3.9420 O.2       1 <0>        -0.4908
     17 N3         -1.2061   -1.7503   -2.1170 N.2       1 <0>        -0.6857
     18 C10        -3.6501   -4.0574   -1.8656 C.3       1 <0>        -0.1454
     19 C11        -3.9451   -4.8305   -3.1251 C.2       1 <0>         0.4917
     20 O4         -3.8974   -4.2725   -4.2081 O.co2     1 <0>        -0.6768
     21 O5         -4.2316   -6.0138   -3.0611 O.co2     1 <0>        -0.7316
     22 H3          1.0039    1.9031    0.0027 H         1 <0>         0.0626
     23 H4         -0.5459    1.8868   -0.8726 H         1 <0>         0.0543
     24 H5         -0.5289    1.8773    0.9072 H         1 <0>         0.0778
     25 H6          0.5123   -0.3556   -0.8948 H         1 <0>         0.1110
     26 H7          0.2319   -0.1594    2.1383 H         1 <0>         0.0778
     27 H8          0.7568   -1.6008    1.2356 H         1 <0>         0.0549
     28 H9          1.7647   -0.1336    1.2338 H         1 <0>         0.0627
     29 H10        -2.7990   -4.5071   -1.3542 H         1 <0>         0.0399
     30 H11        -4.5216   -4.0824   -1.2114 H         1 <0>         0.0630
@<TRIPOS>BOND
     1    1    2 1
     2    1   22 1
     3    1   23 1
     4    1   24 1
     5    2    3 1
     6    2    4 1
     7    2   25 1
     8    3   26 1
     9    3   27 1
    10    3   28 1
    11    4   11 am
    12    4    5 1
    13    5   17 2
    14    5    6 1
    15    6    7 2
    16    6   13 1
    17    7    8 1
    18    7    9 1
    19    9   10 1
    20    9   11 am
    21   11   12 2
    22   13   14 1
    23   13   15 1
    24   13   18 1
    25   15   16 2
    26   15   17 1
    27   18   19 1
    28   18   29 1
    29   18   30 1
    30   19   20 2
    31   19   21 1
@<TRIPOS>MOLECULE
ZINC04253917
   36    37     0     0     0
SMALL
USER_CHARGES
5-amino-2-[2-(4-nitro-2-sulfo-phenyl)vinyl]benzenesulfonic acid
@<TRIPOS>ATOM
      1 C1         -2.4328    1.0503    1.5243 C.ar      1 <0>        -0.1699
      2 C2         -3.5749    1.7960    1.3313 C.ar      1 <0>        -0.0741
      3 C3         -3.4984    3.0345    0.6875 C.ar      1 <0>        -0.0303
      4 C4         -2.2618    3.5116    0.2418 C.ar      1 <0>        -0.6021
      5 C5         -1.1237    2.7629    0.4435 C.ar      1 <0>        -0.1116
      6 C6         -1.2047    1.5282    1.0795 C.ar      1 <0>         0.1859
      7 N1         -0.0505    0.7703    1.2768 N.pl3     1 <0>        -0.8831
      8 S1         -2.1589    5.0716   -0.5708 S.o2      1 <0>         2.6958
      9 O1         -0.8986    5.1059   -1.2261 O.2       1 <0>        -1.0613
     10 O2         -3.3848    5.2483   -1.2673 O.2       1 <0>        -1.0460
     11 C7         -4.7172    3.8352    0.4796 C.2       1 <0>        -0.0592
     12 C8         -5.9258    3.2624    0.6010 C.2       1 <0>        -0.1641
     13 C9         -7.1452    4.0634    0.3931 C.ar      1 <0>         0.1127
     14 C10        -7.0797    5.4595    0.4100 C.ar      1 <0>        -0.1408
     15 C11        -8.2240    6.2024    0.2098 C.ar      1 <0>        -0.0247
     16 C12        -9.4370    5.5690    0.0025 C.ar      1 <0>        -0.0936
     17 C13        -9.5105    4.1874   -0.0104 C.ar      1 <0>         0.0380
     18 C14        -8.3734    3.4310    0.1836 C.ar      1 <0>        -0.6700
     19 S2         -8.4694    1.6717    0.1668 S.o2      1 <0>         2.6962
     20 O3         -9.7045    1.3383   -0.4517 O.2       1 <0>        -1.0537
     21 O4         -7.2210    1.2015   -0.3225 O.2       1 <0>        -1.0351
     22 N2        -10.6621    6.3737   -0.2060 N.pl3     1 <0>         0.0439
     23 O5        -11.7312    5.8194   -0.3883 O.2       1 <0>        -0.1778
     24 O6        -10.6008    7.5901   -0.1952 O.3       1 <0>        -0.1854
     25 H1         -2.4911    0.0933    2.0212 H         1 <0>         0.1192
     26 H2         -4.5282    1.4241    1.6766 H         1 <0>         0.1356
     27 H3         -0.1676    3.1328    0.1038 H         1 <0>         0.1317
     28 H4         -0.1050   -0.0890    1.7237 H         1 <0>         0.3920
     29 H5          0.8060    1.1005    0.9636 H         1 <0>         0.3945
     30 H6         -4.6389    4.8830    0.2296 H         1 <0>         0.1533
     31 H7         -6.0042    2.2147    0.8511 H         1 <0>         0.1625
     32 H8         -6.1346    5.9551    0.5761 H         1 <0>         0.1574
     33 H9         -8.1743    7.2812    0.2189 H         1 <0>         0.1502
     34 H10       -10.4606    3.7000   -0.1723 H         1 <0>         0.1608
     35 O7         -2.1156    6.1408    0.5116 O.3       1 <0>        -1.0770
     36 O8         -8.5700    1.2127    1.6145 O.3       1 <0>        -1.0701
@<TRIPOS>BOND
     1    1    6 ar
     2    1    2 ar
     3    1   25 1
     4    2    3 ar
     5    2   26 1
     6    3    4 ar
     7    3   11 1
     8    4    5 ar
     9    4    8 1
    10    5    6 ar
    11    5   27 1
    12    6    7 1
    13    7   28 1
    14    7   29 1
    15    8    9 2
    16    8   10 2
    17    8   35 1
    18   11   12 2
    19   11   30 1
    20   12   13 1
    21   12   31 1
    22   13   18 ar
    23   13   14 ar
    24   14   15 ar
    25   14   32 1
    26   15   16 ar
    27   15   33 1
    28   16   17 ar
    29   16   22 1
    30   17   18 ar
    31   17   34 1
    32   18   19 1
    33   19   20 2
    34   19   21 2
    35   19   36 1
    36   22   23 2
    37   22   24 1
@<TRIPOS>MOLECULE
ZINC20149057
   42    44     0     0     0
SMALL
USER_CHARGES
3-[3-(4-methoxyphenyl)-4-[(2,4,6-trioxohexahydropyrimidin-5-ylidene)methyl]pyrazol-1-yl]propanoic acid
@<TRIPOS>ATOM
      1 C1         -8.0834   -0.8127    0.5299 C.3       1 <0>         0.0233
      2 O1         -7.6495   -1.9128   -0.2724 O.3       1 <0>        -0.3205
      3 C2         -6.3224   -2.2035   -0.2545 C.ar      1 <0>         0.1239
      4 C3         -5.8346   -3.2602   -1.0118 C.ar      1 <0>        -0.1541
      5 C4         -4.4884   -3.5580   -0.9959 C.ar      1 <0>        -0.0528
      6 C5         -3.6165   -2.7964   -0.2181 C.ar      1 <0>        -0.0339
      7 C6         -4.1106   -1.7390    0.5454 C.ar      1 <0>        -0.0505
      8 C7         -5.4571   -1.4436    0.5213 C.ar      1 <0>        -0.2045
      9 C8         -2.1693   -3.1139   -0.1983 C.2       1 <0>         0.1316
     10 C9         -1.0634   -2.1511   -0.0929 C.2       1 <0>        -0.2577
     11 C10         0.1053   -2.9001   -0.1204 C.2       1 <0>         0.1636
     12 N1         -0.2386   -4.1908   -0.2214 N.pl3     1 <0>        -0.3462
     13 N2         -1.6299   -4.3086   -0.2719 N.2       1 <0>        -0.2871
     14 C11         0.7037   -5.3111   -0.2774 C.3       1 <0>         0.1460
     15 C12         0.3639   -6.3188    0.8226 C.3       1 <0>        -0.1661
     16 C13         1.3332   -7.4713    0.7650 C.2       1 <0>         0.4695
     17 O2          2.2062   -7.4852   -0.0702 O.co2     1 <0>        -0.6439
     18 O3          1.2266   -8.4823    1.6415 O.co2     1 <0>        -0.7701
     19 C14        -1.1686   -0.7428    0.0097 C.2       1 <0>         0.1022
     20 C15        -0.4001   -0.0567    0.9343 C.2       1 <0>        -0.2999
     21 C16        -0.3345    1.4168    0.9395 C.2       1 <0>         0.5387
     22 O4         -0.9537    2.0726    0.1231 O.3       1 <0>        -0.5740
     23 N3          0.4351    2.0171    1.8706 N.2       1 <0>        -0.7178
     24 C17         1.1267    1.3066    2.7724 C.2       1 <0>         0.6672
     25 O5          1.8015    1.9089    3.5842 O.2       1 <0>        -0.6063
     26 N4          1.1143   -0.0326    2.8267 N.am      1 <0>        -0.7082
     27 C18         0.3891   -0.7671    1.9582 C.2       1 <0>         0.5619
     28 O6          0.3858   -1.9821    2.0180 O.2       1 <0>        -0.5320
     29 H1         -9.1712   -0.6881    0.4238 H         1 <0>         0.0966
     30 H2         -7.5752    0.1051    0.1993 H         1 <0>         0.0579
     31 H3         -7.8378   -1.0084    1.5841 H         1 <0>         0.0560
     32 H4         -6.5102   -3.8493   -1.6141 H         1 <0>         0.1303
     33 H5         -4.1097   -4.3802   -1.5848 H         1 <0>         0.1346
     34 H6         -3.4387   -1.1499    1.1519 H         1 <0>         0.1316
     35 H7         -5.8398   -0.6226    1.1094 H         1 <0>         0.1303
     36 H8          1.1116   -2.5118   -0.0668 H         1 <0>         0.1724
     37 H9          0.6319   -5.8019   -1.2592 H         1 <0>         0.0872
     38 H10         1.7274   -4.9370   -0.1285 H         1 <0>         0.0988
     39 H11         0.4358   -5.8280    1.8044 H         1 <0>         0.0728
     40 H12        -0.6598   -6.6929    0.6737 H         1 <0>         0.0791
     41 H13        -1.8611   -0.1939   -0.6454 H         1 <0>         0.1375
     42 H14         1.7046   -0.5575    3.5922 H         1 <0>         0.4126
@<TRIPOS>BOND
     1    1    2 1
     2    1   29 1
     3    1   30 1
     4    1   31 1
     5    2    3 1
     6    3    8 ar
     7    3    4 ar
     8    4    5 ar
     9    4   32 1
    10    5    6 ar
    11    5   33 1
    12    6    7 ar
    13    6    9 1
    14    7    8 ar
    15    7   34 1
    16    8   35 1
    17    9   13 2
    18    9   10 1
    19   10   11 2
    20   10   19 1
    21   11   12 1
    22   11   36 1
    23   12   13 1
    24   12   14 1
    25   14   15 1
    26   14   37 1
    27   14   38 1
    28   15   16 1
    29   15   39 1
    30   15   40 1
    31   16   17 2
    32   16   18 1
    33   19   20 2
    34   19   41 1
    35   20   27 1
    36   20   21 1
    37   21   22 1
    38   21   23 2
    39   23   24 1
    40   24   25 2
    41   24   26 am
    42   26   27 am
    43   26   42 1
    44   27   28 2
@<TRIPOS>MOLECULE
ZINC37388075
   34    34     0     0     0
SMALL
USER_CHARGES

@<TRIPOS>ATOM
      1 C1         -0.0187    1.5258    0.0104 C.3       1 <0>        -0.1444
      2 C2          0.0021   -0.0041    0.0020 C.3       1 <0>        -0.0590
      3 C3         -1.4117   -0.5257    0.0127 C.2       1 <0>         0.1463
      4 C4         -2.2181   -0.8273    1.1965 C.2       1 <0>        -0.2806
      5 C5         -3.4286   -1.2715    0.7470 C.2       1 <0>         0.1103
      6 O1         -3.4048   -1.2574   -0.5882 O.3       1 <0>        -0.0887
      7 N1         -2.1464   -0.7870   -1.0279 N.2       1 <0>        -0.3264
      8 C6         -4.5886   -1.7021    1.6072 C.3       1 <0>        -0.0931
      9 C7         -1.8030   -0.6805    2.6032 C.2       1 <0>         0.5800
     10 O2         -1.9955    0.3685    3.1876 O.2       1 <0>        -0.5438
     11 N2         -1.2102   -1.7087    3.2418 N.am      1 <0>        -0.6711
     12 C8         -0.7977   -1.5627    4.6399 C.3       1 <0>         0.0729
     13 H1         -0.4584   -0.5416    4.8139 H         1 <0>         0.0781
     14 C9          0.3432   -2.5372    4.9394 C.3       1 <0>        -0.0827
     15 C10         1.5720   -2.1534    4.1126 C.3       1 <0>        -0.1768
     16 C11         2.6958   -3.1132    4.4077 C.2       1 <0>         0.4908
     17 O3          2.5292   -4.0202    5.2053 O.co2     1 <0>        -0.6974
     18 O4          3.7715   -2.9828    3.8488 O.co2     1 <0>        -0.7193
     19 C12        -1.9661   -1.8645    5.5425 C.2       1 <0>         0.4991
     20 O5         -2.8221   -2.6567    5.1873 O.co2     1 <0>        -0.6993
     21 O6         -2.0554   -1.3164    6.6279 O.co2     1 <0>        -0.6994
     22 H2          1.0039    1.9031    0.0027 H         1 <0>         0.0693
     23 H3         -0.5459    1.8868   -0.8726 H         1 <0>         0.0544
     24 H4         -0.5289    1.8773    0.9072 H         1 <0>         0.0676
     25 H5          0.5123   -0.3556   -0.8948 H         1 <0>         0.0888
     26 H6          0.5293   -0.3651    0.8851 H         1 <0>         0.0994
     27 H7         -5.2235   -0.8416    1.8184 H         1 <0>         0.0950
     28 H8         -5.1683   -2.4612    1.0820 H         1 <0>         0.0857
     29 H9         -4.2131   -2.1151    2.5435 H         1 <0>         0.1131
     30 H10        -1.0566   -2.5454    2.7756 H         1 <0>         0.3937
     31 H11         0.5904   -2.4922    6.0001 H         1 <0>         0.0730
     32 H12         0.0333   -3.5498    4.6812 H         1 <0>         0.0607
     33 H13         1.3249   -2.1983    3.0520 H         1 <0>         0.0505
     34 H14         1.8819   -1.1408    4.3709 H         1 <0>         0.0529
@<TRIPOS>BOND
     1    1    2 1
     2    1   22 1
     3    1   23 1
     4    1   24 1
     5    2    3 1
     6    2   25 1
     7    2   26 1
     8    3    7 2
     9    3    4 1
    10    4    5 2
    11    4    9 1
    12    5    6 1
    13    5    8 1
    14    6    7 1
    15    8   27 1
    16    8   28 1
    17    8   29 1
    18    9   10 2
    19    9   11 am
    20   11   12 1
    21   11   30 1
    22   12   13 1
    23   12   14 1
    24   12   19 1
    25   14   15 1
    26   14   31 1
    27   14   32 1
    28   15   16 1
    29   15   33 1
    30   15   34 1
    31   16   17 2
    32   16   18 1
    33   19   20 2
    34   19   21 1
@<TRIPOS>MOLECULE
ZINC39986358
   36    37     0     0     0
SMALL
USER_CHARGES

@<TRIPOS>ATOM
      1 C1         -0.0061    1.4047    0.0343 C.ar      1 <0>        -0.2645
      2 C2          1.1852    2.0993    0.0309 C.ar      1 <0>        -0.0231
      3 C3          2.3960    1.4097   -0.0089 C.ar      1 <0>        -0.2307
      4 C4          2.3978    0.0012   -0.0456 C.ar      1 <0>        -0.0325
      5 C5          1.1923   -0.6883   -0.0418 C.ar      1 <0>        -0.1598
      6 C6         -0.0085    0.0138   -0.0019 C.ar      1 <0>         0.3117
      7 N1         -1.2155   -0.6774    0.0018 N.2       1 <0>        -1.0741
      8 S1         -2.6463    0.1551    0.0493 S.o2      1 <0>         2.6178
      9 O1         -2.6975    0.8028    1.3131 O.2       1 <0>        -1.0205
     10 O2         -2.7424    0.8677   -1.1763 O.2       1 <0>        -1.0299
     11 C7         -3.9434   -1.0374    0.0416 C.ar      1 <0>        -0.6379
     12 C8         -4.4692   -1.4775   -1.1612 C.ar      1 <0>        -0.0213
     13 C9         -5.4873   -2.4130   -1.1781 C.ar      1 <0>        -0.1597
     14 C10        -5.9870   -2.9159    0.0075 C.ar      1 <0>         0.0350
     15 C11        -5.4601   -2.4760    1.2259 C.ar      1 <0>        -0.1569
     16 C12        -4.4277   -1.5335    1.2330 C.ar      1 <0>         0.0253
     17 C13        -5.9875   -3.0069    2.4962 C.2       1 <0>         0.5223
     18 O3         -5.5244   -2.6200    3.5600 O.co2     1 <0>        -0.6844
     19 O4         -6.8882   -3.8343    2.4862 O.co2     1 <0>        -0.6682
     20 Cl1        -7.2655   -4.0900   -0.0149 Cl        1 <0>        -0.0501
     21 C14         3.6780   -0.7397   -0.0885 C.2       1 <0>         0.5788
     22 O5          4.4897   -0.5004   -0.9608 O.2       1 <0>        -0.5242
     23 N2          3.9438   -1.6800    0.8398 N.am      1 <0>        -0.8564
     24 C15         3.6717    2.1525   -0.0131 C.2       1 <0>         0.5683
     25 O6          4.7255    1.5513    0.0663 O.2       1 <0>        -0.5415
     26 N3          3.6683    3.4971   -0.1049 N.am      1 <0>        -0.8652
     27 H1         -0.9417    1.9429    0.0697 H         1 <0>         0.1077
     28 H2          1.1801    3.1789    0.0587 H         1 <0>         0.1109
     29 H3          1.1868   -1.7679   -0.0702 H         1 <0>         0.1262
     30 H4         -4.0824   -1.0877   -2.0912 H         1 <0>         0.1366
     31 H5         -5.8930   -2.7510   -2.1202 H         1 <0>         0.1284
     32 H6         -4.0133   -1.1918    2.1700 H         1 <0>         0.1482
     33 H7          3.2960   -1.8710    1.5360 H         1 <0>         0.4012
     34 H8          4.7830   -2.1657    0.8117 H         1 <0>         0.3939
     35 H9          2.8276    3.9768   -0.1682 H         1 <0>         0.3961
     36 H10         4.5066    3.9852   -0.1076 H         1 <0>         0.3925
@<TRIPOS>BOND
     1    1    6 ar
     2    1    2 ar
     3    1   27 1
     4    2    3 ar
     5    2   28 1
     6    3    4 ar
     7    3   24 1
     8    4    5 ar
     9    4   21 1
    10    5    6 ar
    11    5   29 1
    12    6    7 1
    13    7    8 1
    14    8    9 2
    15    8   10 2
    16    8   11 1
    17   11   16 ar
    18   11   12 ar
    19   12   13 ar
    20   12   30 1
    21   13   14 ar
    22   13   31 1
    23   14   15 ar
    24   14   20 1
    25   15   16 ar
    26   15   17 1
    27   16   32 1
    28   17   18 2
    29   17   19 1
    30   21   22 2
    31   21   23 am
    32   23   33 1
    33   23   34 1
    34   24   25 2
    35   24   26 am
    36   26   35 1
    37   26   36 1
@<TRIPOS>MOLECULE
ZINC16900434
   41    42     0     0     0
SMALL
USER_CHARGES

@<TRIPOS>ATOM
      1 C1         -0.5740    1.2032   -0.8300 C.3       1 <0>        -0.1673
      2 C2         -0.6570   -0.3015   -0.8224 C.2       1 <0>         0.5052
      3 O1          0.3347   -0.9646   -1.0411 O.2       1 <0>        -0.5547
      4 N1         -1.8332   -0.9103   -0.5727 N.am      1 <0>        -0.6952
      5 C3         -1.9139   -2.3730   -0.5653 C.3       1 <0>         0.0937
      6 H1         -0.9879   -2.7860   -0.1650 H         1 <0>         0.0920
      7 C4         -3.0892   -2.8146    0.3090 C.3       1 <0>        -0.0762
      8 S1         -2.8418   -2.2141    2.0028 S.3       1 <0>        -0.1982
      9 C5         -4.3010   -2.8137    2.8984 C.3       1 <0>        -0.1139
     10 H2         -5.2150   -2.4932    2.3984 H         1 <0>         0.1392
     11 C6         -4.2808   -2.3217    4.3600 C.3       1 <0>        -0.1261
     12 C7         -4.2332   -3.6024    5.1646 C.2       1 <0>         0.5303
     13 O2         -4.2056   -3.6708    6.3745 O.2       1 <0>        -0.4700
     14 N2         -4.2267   -4.6479    4.3284 N.am      1 <0>        -0.5174
     15 C8         -4.2647   -4.3209    3.0272 C.2       1 <0>         0.5301
     16 O3         -4.2685   -5.1048    2.1026 O.2       1 <0>        -0.4479
     17 C9         -4.1860   -5.9718    4.7734 C.ar      1 <0>         0.1077
     18 C10        -5.2759   -6.5081    5.4553 C.ar      1 <0>        -0.1252
     19 C11        -5.2475   -7.7996    5.8951 C.ar      1 <0>        -0.0640
     20 C12        -4.1191   -8.5956    5.6627 C.ar      1 <0>        -0.1483
     21 C13        -3.0180   -8.0588    4.9750 C.ar      1 <0>         0.1496
     22 C14        -3.0621   -6.7485    4.5292 C.ar      1 <0>        -0.1410
     23 O4         -1.9201   -8.8208    4.7451 O.3       1 <0>        -0.4705
     24 C15        -4.0868   -9.9860    6.1365 C.2       1 <0>         0.5212
     25 O5         -5.0473  -10.4508    6.7357 O.co2     1 <0>        -0.6919
     26 O6         -3.0993  -10.6793    5.9320 O.co2     1 <0>        -0.6682
     27 C16        -2.1193   -2.8719   -1.9725 C.2       1 <0>         0.5006
     28 O7         -1.6888   -3.9642   -2.3010 O.co2     1 <0>        -0.6811
     29 O8         -2.7161   -2.1831   -2.7824 O.co2     1 <0>        -0.6859
     30 H3          0.4489    1.5096   -1.0487 H         1 <0>         0.0838
     31 H4         -1.2432    1.6002   -1.5933 H         1 <0>         0.0834
     32 H5         -0.8677    1.5882    0.1465 H         1 <0>         0.0813
     33 H6         -2.6263   -0.3799   -0.3978 H         1 <0>         0.3950
     34 H7         -4.0151   -2.4017   -0.0913 H         1 <0>         0.0885
     35 H8         -3.1492   -3.9029    0.3145 H         1 <0>         0.1093
     36 H9         -3.3939   -1.7168    4.5489 H         1 <0>         0.1294
     37 H10        -5.1860   -1.7590    4.5879 H         1 <0>         0.1309
     38 H11        -6.1483   -5.8981    5.6373 H         1 <0>         0.1188
     39 H12        -6.0962   -8.2083    6.4234 H         1 <0>         0.1377
     40 H13        -2.2212   -6.3302    3.9960 H         1 <0>         0.1274
     41 H14        -1.9491   -9.3111    3.9121 H         1 <0>         0.3879
@<TRIPOS>BOND
     1    1    2 1
     2    1   30 1
     3    1   31 1
     4    1   32 1
     5    2    3 2
     6    2    4 am
     7    4    5 1
     8    4   33 1
     9    5    6 1
    10    5    7 1
    11    5   27 1
    12    7    8 1
    13    7   34 1
    14    7   35 1
    15    8    9 1
    16    9   10 1
    17    9   15 1
    18    9   11 1
    19   11   12 1
    20   11   36 1
    21   11   37 1
    22   12   13 2
    23   12   14 am
    24   14   15 am
    25   14   17 1
    26   15   16 2
    27   17   22 ar
    28   17   18 ar
    29   18   19 ar
    30   18   38 1
    31   19   20 ar
    32   19   39 1
    33   20   21 ar
    34   20   24 1
    35   21   22 ar
    36   21   23 1
    37   22   40 1
    38   23   41 1
    39   24   25 2
    40   24   26 1
    41   27   28 2
    42   27   29 1
@<TRIPOS>MOLECULE
ZINC02025114
   45    47     0     0     0
SMALL
USER_CHARGES
4-[[2-[4-(3-carboxyprop-2-enoylamino)phenyl]-1H-benzoimidazol-5-yl]amino]-4-oxo-but-2-enoic acid
@<TRIPOS>ATOM
      1 C1          0.0531    3.7131    1.3341 C.ar      1 <0>        -0.0440
      2 C2          0.8143    4.8282    1.6071 C.ar      1 <0>        -0.1243
      3 C3          0.2847    6.0991    1.4090 C.ar      1 <0>         0.1763
      4 C4         -1.0145    6.2481    0.9348 C.ar      1 <0>        -0.1518
      5 C5         -1.7803    5.1368    0.6596 C.ar      1 <0>        -0.0800
      6 C6         -1.2496    3.8595    0.8524 C.ar      1 <0>        -0.0564
      7 C7         -2.0665    2.6652    0.5523 C.2       1 <0>         0.3354
      8 N1         -3.3521    2.6884    0.0829 N.pl3     1 <0>        -0.6019
      9 H1         -3.8977    3.5032   -0.1132 H         1 <0>         0.4250
     10 C8         -3.7555    1.3742   -0.0695 C.ar      1 <0>         0.0346
     11 C9         -4.9299    0.7742   -0.5028 C.ar      1 <0>        -0.0963
     12 C10        -5.0285   -0.5995   -0.5371 C.ar      1 <0>        -0.1211
     13 C11        -3.9545   -1.3941   -0.1382 C.ar      1 <0>         0.1423
     14 C12        -2.7780   -0.8124    0.2955 C.ar      1 <0>        -0.0692
     15 C13        -2.6669    0.5810    0.3344 C.ar      1 <0>         0.0741
     16 N2         -1.6707    1.4241    0.7009 N.2       1 <0>        -0.4791
     17 N3         -4.0682   -2.7880   -0.1774 N.am      1 <0>        -0.6722
     18 C14        -2.9893   -3.5444   -0.4612 C.2       1 <0>         0.5478
     19 O1         -1.9410   -3.0146   -0.7742 O.2       1 <0>        -0.5234
     20 C15        -3.0808   -5.0160   -0.3920 C.2       1 <0>        -0.2146
     21 C16        -2.0057   -5.7697   -0.6748 C.2       1 <0>        -0.0636
     22 C17        -2.0971   -7.2400   -0.6056 C.2       1 <0>         0.4728
     23 O2         -3.1446   -7.7693   -0.2928 O.co2     1 <0>        -0.6260
     24 N4          1.0581    7.2264    1.6859 N.am      1 <0>        -0.6746
     25 C18         2.3912    7.1936    1.4905 C.2       1 <0>         0.5500
     26 O3          2.9077    6.2157    0.9860 O.2       1 <0>        -0.5213
     27 C19         3.2241    8.3451    1.8890 C.2       1 <0>        -0.2177
     28 C20         4.5526    8.3124    1.6942 C.2       1 <0>        -0.0597
     29 C21         5.3849    9.4631    2.0925 C.2       1 <0>         0.4722
     30 O4          4.8688   10.4402    2.5966 O.co2     1 <0>        -0.6249
     31 H2          0.4648    2.7266    1.4882 H         1 <0>         0.1432
     32 H3          1.8232    4.7156    1.9758 H         1 <0>         0.1445
     33 H4         -1.4230    7.2361    0.7819 H         1 <0>         0.1316
     34 H5         -2.7887    5.2530    0.2907 H         1 <0>         0.1218
     35 H6         -5.7656    1.3838   -0.8132 H         1 <0>         0.1253
     36 H7         -5.9433   -1.0637   -0.8747 H         1 <0>         0.1336
     37 H8         -1.9484   -1.4314    0.6037 H         1 <0>         0.1446
     38 H9         -4.9234   -3.2101   -0.0004 H         1 <0>         0.4124
     39 H10        -4.0122   -5.4866   -0.1139 H         1 <0>         0.1356
     40 H11        -1.0743   -5.2990   -0.9528 H         1 <0>         0.1214
     41 H12         0.6365    8.0339    2.0192 H         1 <0>         0.4138
     42 H13         2.7653    9.2140    2.3373 H         1 <0>         0.1365
     43 H14         5.0115    7.4436    1.2460 H         1 <0>         0.1219
     44 O5         -1.0183   -7.9962   -0.8893 O.co2     1 <0>        -0.7480
     45 O6          6.7178    9.4303    1.8970 O.co2     1 <0>        -0.7466
@<TRIPOS>BOND
     1    1    6 ar
     2    1    2 ar
     3    1   31 1
     4    2    3 ar
     5    2   32 1
     6    3    4 ar
     7    3   24 1
     8    4    5 ar
     9    4   33 1
    10    5    6 ar
    11    5   34 1
    12    6    7 1
    13    7   16 2
    14    7    8 1
    15    8    9 1
    16    8   10 1
    17   10   15 ar
    18   10   11 ar
    19   11   12 ar
    20   11   35 1
    21   12   13 ar
    22   12   36 1
    23   13   14 ar
    24   13   17 1
    25   14   15 ar
    26   14   37 1
    27   15   16 1
    28   17   18 am
    29   17   38 1
    30   18   19 2
    31   18   20 1
    32   20   21 2
    33   20   39 1
    34   21   22 1
    35   21   40 1
    36   22   23 2
    37   22   44 1
    38   24   25 am
    39   24   41 1
    40   25   26 2
    41   25   27 1
    42   27   28 2
    43   27   42 1
    44   28   29 1
    45   28   43 1
    46   29   30 2
    47   29   45 1
@<TRIPOS>MOLECULE
ZINC13422195
   42    43     0     0     0
SMALL
USER_CHARGES
4-[(1S)-1-methyl-2-oxo-2-[(4-sulfamoylphenyl)amino]ethoxy]benzene-1,3-dicarboxylic acid
@<TRIPOS>ATOM
      1 C1          5.6829    3.7806   -1.3962 C.3       1 <0>        -0.1753
      2 C2          4.9809    3.5018   -0.0657 C.3       1 <0>         0.0604
      3 H1          5.5422    2.7514    0.4911 H         1 <0>         0.0999
      4 C3          4.9071    4.7736    0.7395 C.2       1 <0>         0.5131
      5 O1          3.8289    5.2226    1.0665 O.2       1 <0>        -0.4580
      6 N1          6.0392    5.4121    1.0961 N.am      1 <0>        -0.6806
      7 C4          5.9768    6.5329    1.9315 C.ar      1 <0>         0.2265
      8 C5          6.8963    7.5630    1.7835 C.ar      1 <0>        -0.1743
      9 C6          6.8279    8.6710    2.6052 C.ar      1 <0>         0.0012
     10 C7          5.8531    8.7494    3.5829 C.ar      1 <0>        -0.7031
     11 C8          4.9399    7.7226    3.7368 C.ar      1 <0>         0.0061
     12 C9          4.9988    6.6149    2.9139 C.ar      1 <0>        -0.1468
     13 S1          5.7742   10.1611    4.6344 S.o2      1 <0>         2.7048
     14 O2          6.3988   11.2265    3.9315 O.2       1 <0>        -0.9702
     15 O3          4.4365   10.2411    5.1071 O.2       1 <0>        -0.9650
     16 N2          6.7240    9.8431    5.9531 N.pl3     1 <0>        -1.2518
     17 O4          3.6594    3.0193   -0.3162 O.3       1 <0>        -0.2403
     18 C10         3.5228    1.6913   -0.5457 C.ar      1 <0>         0.1439
     19 C11         4.6494    0.8842   -0.6473 C.ar      1 <0>        -0.2517
     20 C12         4.5167   -0.4644   -0.8864 C.ar      1 <0>        -0.0411
     21 C13         3.2452   -1.0348   -1.0235 C.ar      1 <0>        -0.1716
     22 C14         2.1084   -0.2363   -0.9179 C.ar      1 <0>        -0.0019
     23 C15         2.2426    1.1292   -0.6757 C.ar      1 <0>        -0.1607
     24 C16         1.0450    1.9818   -0.5624 C.2       1 <0>         0.4940
     25 O5          1.1647    3.1724   -0.3512 O.co2     1 <0>        -0.6164
     26 C17         3.1094   -2.4811   -1.2803 C.2       1 <0>         0.4987
     27 O6          2.0062   -2.9759   -1.3997 O.co2     1 <0>        -0.6330
     28 H2          5.1216    4.5310   -1.9529 H         1 <0>         0.0737
     29 H3          6.6909    4.1486   -1.2051 H         1 <0>         0.0660
     30 H4          5.7363    2.8607   -1.9785 H         1 <0>         0.0841
     31 H5          6.8972    5.0946    0.7737 H         1 <0>         0.4139
     32 H6          7.6611    7.5000    1.0235 H         1 <0>         0.1374
     33 H7          7.5393    9.4750    2.4871 H         1 <0>         0.1439
     34 H8          4.1795    7.7870    4.5011 H         1 <0>         0.1462
     35 H9          4.2848    5.8136    3.0342 H         1 <0>         0.1505
     36 H10         7.1906    8.9955    6.0217 H         1 <0>         0.4168
     37 H11         6.8136   10.5044    6.6571 H         1 <0>         0.4177
     38 H12         5.6330    1.3177   -0.5425 H         1 <0>         0.1155
     39 H13         5.3966   -1.0854   -0.9683 H         1 <0>         0.1259
     40 H14         1.1268   -0.6741   -1.0237 H         1 <0>         0.1426
     41 O7         -0.1821    1.4408   -0.6930 O.co2     1 <0>        -0.7666
     42 O8          4.2089   -3.2533   -1.3825 O.co2     1 <0>        -0.7745
@<TRIPOS>BOND
     1    1    2 1
     2    1   28 1
     3    1   29 1
     4    1   30 1
     5    2    3 1
     6    2    4 1
     7    2   17 1
     8    4    5 2
     9    4    6 am
    10    6    7 1
    11    6   31 1
    12    7   12 ar
    13    7    8 ar
    14    8    9 ar
    15    8   32 1
    16    9   10 ar
    17    9   33 1
    18   10   11 ar
    19   10   13 1
    20   11   12 ar
    21   11   34 1
    22   12   35 1
    23   13   14 2
    24   13   15 2
    25   13   16 1
    26   16   36 1
    27   16   37 1
    28   17   18 1
    29   18   23 ar
    30   18   19 ar
    31   19   20 ar
    32   19   38 1
    33   20   21 ar
    34   20   39 1
    35   21   22 ar
    36   21   26 1
    37   22   23 ar
    38   22   40 1
    39   23   24 1
    40   24   25 2
    41   24   41 1
    42   26   27 2
    43   26   42 1
@<TRIPOS>MOLECULE
ZINC25501557
   42    44     0     0     0
SMALL
USER_CHARGES
(3R)-1-[4-[(2-carboxyphenyl)sulfamoyl]phenyl]-5-oxo-pyrrolidine-3-carboxylic acid
@<TRIPOS>ATOM
      1 C1         -7.6490    2.6494    4.2880 C.ar      1 <0>        -0.1626
      2 C2         -8.1208    2.7230    2.9866 C.ar      1 <0>        -0.0915
      3 C3         -7.9189    1.6773    2.1098 C.ar      1 <0>        -0.2032
      4 C4         -7.2385    0.5400    2.5275 C.ar      1 <0>         0.1992
      5 C5         -6.7644    0.4597    3.8467 C.ar      1 <0>        -0.1424
      6 C6         -6.9731    1.5303    4.7212 C.ar      1 <0>        -0.0549
      7 C7         -6.0472   -0.7425    4.3048 C.2       1 <0>         0.4986
      8 O1         -5.8642   -1.6691    3.5401 O.co2     1 <0>        -0.6266
      9 O2         -5.5940   -0.8149    5.5719 O.co2     1 <0>        -0.7511
     10 N1         -7.0335   -0.5136    1.6470 N.pl3     1 <0>        -1.0440
     11 S1         -6.7477   -0.2096    0.0444 S.o2      1 <0>         2.6961
     12 O3         -7.8090    0.6203   -0.4072 O.2       1 <0>        -0.9700
     13 O4         -6.4493   -1.4609   -0.5594 O.2       1 <0>        -0.9648
     14 C8         -5.2778    0.7576   -0.0483 C.ar      1 <0>        -0.7047
     15 C9         -4.0479    0.1349   -0.1578 C.ar      1 <0>         0.0178
     16 C10        -2.8938    0.8901   -0.2297 C.ar      1 <0>        -0.1847
     17 C11        -2.9694    2.2763   -0.1924 C.ar      1 <0>         0.2302
     18 C12        -4.2056    2.8984   -0.0771 C.ar      1 <0>        -0.1833
     19 C13        -5.3564    2.1376   -0.0109 C.ar      1 <0>         0.0129
     20 N2         -1.8021    3.0443   -0.2652 N.am      1 <0>        -0.5612
     21 C14        -1.7787    4.5092   -0.3510 C.3       1 <0>         0.1114
     22 C15        -0.3374    4.9225    0.0210 C.3       1 <0>        -0.1489
     23 H1         -0.2110    5.2592    1.0606 H         1 <0>         0.1009
     24 C16         0.4606    3.6506   -0.3485 C.3       1 <0>        -0.1250
     25 C17        -0.5579    2.5354   -0.2620 C.2       1 <0>         0.5229
     26 O5         -0.2909    1.3537   -0.2037 O.2       1 <0>        -0.5153
     27 C18         0.1157    6.1013   -0.8012 C.2       1 <0>         0.4709
     28 O6         -0.6624    6.6580   -1.5391 O.co2     1 <0>        -0.6326
     29 O7          1.3837    6.5329   -0.7137 O.co2     1 <0>        -0.7604
     30 H2         -7.8127    3.4739    4.9661 H         1 <0>         0.1156
     31 H3         -8.6503    3.6048    2.6570 H         1 <0>         0.1192
     32 H4         -8.2897    1.7427    1.0976 H         1 <0>         0.1550
     33 H5         -6.6081    1.4783    5.7363 H         1 <0>         0.1308
     34 H6         -7.0609   -1.5503    2.0138 H         1 <0>         0.4656
     35 H7         -3.9898   -0.9432   -0.1868 H         1 <0>         0.1416
     36 H8         -1.9336    0.4032   -0.3153 H         1 <0>         0.1623
     37 H9         -4.2673    3.9761   -0.0430 H         1 <0>         0.1361
     38 H10        -6.3184    2.6210    0.0747 H         1 <0>         0.1408
     39 H11        -2.0340    4.8206   -1.3746 H         1 <0>         0.0987
     40 H12        -2.5113    4.9295    0.3537 H         1 <0>         0.0814
     41 H13         0.8709    3.7571   -1.3636 H         1 <0>         0.1110
     42 H14         1.2844    3.5137    0.3674 H         1 <0>         0.1081
@<TRIPOS>BOND
     1    1    6 ar
     2    1    2 ar
     3    1   30 1
     4    2    3 ar
     5    2   31 1
     6    3    4 ar
     7    3   32 1
     8    4    5 ar
     9    4   10 1
    10    5    6 ar
    11    5    7 1
    12    6   33 1
    13    7    8 2
    14    7    9 1
    15   10   11 1
    16   10   34 1
    17   11   12 2
    18   11   13 2
    19   11   14 1
    20   14   19 ar
    21   14   15 ar
    22   15   16 ar
    23   15   35 1
    24   16   17 ar
    25   16   36 1
    26   17   18 ar
    27   17   20 1
    28   18   19 ar
    29   18   37 1
    30   19   38 1
    31   20   25 am
    32   20   21 1
    33   21   22 1
    34   21   39 1
    35   21   40 1
    36   22   23 1
    37   22   24 1
    38   22   27 1
    39   24   25 1
    40   24   41 1
    41   24   42 1
    42   25   26 2
    43   27   28 2
    44   27   29 1
@<TRIPOS>MOLECULE
ZINC39703856
   42    44     0     0     0
SMALL
USER_CHARGES

@<TRIPOS>ATOM
      1 C1          4.4611    1.8438   -2.5288 C.3       1 <0>        -0.1180
      2 C2          4.7386    0.3418   -2.3258 C.3       1 <0>        -0.0609
      3 C3          4.4426    0.0692   -0.8463 C.2       1 <0>        -0.1813
      4 C4          3.7046    1.0577   -0.3738 C.2       1 <0>        -0.0883
      5 C5          3.4245    2.1133   -1.4171 C.3       1 <0>        -0.0517
      6 S1          3.3462    0.6825    1.3320 S.3       1 <0>        -0.1572
      7 C6          3.8810   -1.0788    1.3377 C.3       1 <0>         0.2026
      8 H1          3.0409   -1.7530    1.1710 H         1 <0>         0.1632
      9 C7          4.8277   -1.0383    0.1162 C.3       1 <0>         0.0383
     10 H2          4.7803   -1.9952   -0.4037 H         1 <0>         0.1418
     11 C8          6.2059   -0.8140    0.5821 C.1       1 <0>         0.2057
     12 N1          7.2695   -0.6409    0.9416 N.1       1 <0>        -0.3973
     13 N2          4.6013   -1.4186    2.5673 N.am      1 <0>        -0.7057
     14 C9          4.0910   -2.3322    3.4167 C.2       1 <0>         0.5479
     15 O1          3.0834   -2.9390    3.1208 O.2       1 <0>        -0.5027
     16 C10         4.7723   -2.5996    4.7340 C.3       1 <0>        -0.1468
     17 S2          3.8515   -3.8703    5.6440 S.3       1 <0>         0.0311
     18 C11         4.7617   -4.0673    7.1397 C.ar      1 <0>         0.2484
     19 N3          4.3484   -4.9416    8.0492 N.ar      1 <0>        -0.5761
     20 C12         5.0387   -5.0859    9.1751 C.ar      1 <0>         0.4214
     21 O2          4.6407   -5.9710   10.1211 O.3       1 <0>        -0.6588
     22 C13         6.1820   -4.3084    9.3642 C.ar      1 <0>        -0.0381
     23 N4          6.5439   -3.4556    8.4242 N.ar      1 <0>        -0.2057
     24 N5          5.8561   -3.3436    7.3421 N.ar      1 <0>        -0.4097
     25 C14         6.9935   -4.4405   10.6272 C.3       1 <0>        -0.0106
     26 C15         8.0689   -5.5113   10.4327 C.3       1 <0>        -0.1653
     27 C16         8.8804   -5.6434   11.6956 C.2       1 <0>         0.4977
     28 O3          8.6226   -4.9458   12.6617 O.co2     1 <0>        -0.7013
     29 O4          9.7948   -6.4480   11.7513 O.co2     1 <0>        -0.7190
     30 H3          5.3646    2.4335   -2.3730 H         1 <0>         0.0763
     31 H4          4.0366    2.0339   -3.5145 H         1 <0>         0.0845
     32 H5          4.0793   -0.2526   -2.9584 H         1 <0>         0.0845
     33 H6          5.7814    0.1170   -2.5498 H         1 <0>         0.0734
     34 H7          3.5665    3.1094   -0.9980 H         1 <0>         0.0820
     35 H8          2.4123    2.0041   -1.8064 H         1 <0>         0.0909
     36 H9          5.4455   -0.9861    2.7702 H         1 <0>         0.4112
     37 H10         5.7893   -2.9475    4.5530 H         1 <0>         0.1236
     38 H11         4.8013   -1.6817    5.3210 H         1 <0>         0.1249
     39 H12         7.4682   -3.4862   10.8555 H         1 <0>         0.0616
     40 H13         6.3398   -4.7275   11.4508 H         1 <0>         0.0773
     41 H14         7.5943   -6.4656   10.2043 H         1 <0>         0.0563
     42 H15         8.7227   -5.2244    9.6091 H         1 <0>         0.0497
@<TRIPOS>BOND
     1    1    5 1
     2    1    2 1
     3    1   30 1
     4    1   31 1
     5    2    3 1
     6    2   32 1
     7    2   33 1
     8    3    9 1
     9    3    4 2
    10    4    5 1
    11    4    6 1
    12    5   34 1
    13    5   35 1
    14    6    7 1
    15    7    8 1
    16    7    9 1
    17    7   13 1
    18    9   10 1
    19    9   11 1
    20   11   12 3
    21   13   14 am
    22   13   36 1
    23   14   15 2
    24   14   16 1
    25   16   17 1
    26   16   37 1
    27   16   38 1
    28   17   18 1
    29   18   19 ar
    30   18   24 ar
    31   19   20 ar
    32   20   21 1
    33   20   22 ar
    34   22   23 ar
    35   22   25 1
    36   23   24 ar
    37   25   26 1
    38   25   39 1
    39   25   40 1
    40   26   27 1
    41   26   41 1
    42   26   42 1
    43   27   28 2
    44   27   29 1
@<TRIPOS>MOLECULE
ZINC36744234
   35    37     0     0     0
SMALL
USER_CHARGES

@<TRIPOS>ATOM
      1 C1         -0.0187    1.5258    0.0104 C.3       1 <0>        -0.1545
      2 C2          0.0021   -0.0041    0.0020 C.3       1 <0>         0.0906
      3 N1          0.6878   -0.4765   -1.2033 N.pl3     1 <0>        -0.4924
      4 C3         -0.0226   -0.6967   -2.3307 C.2       1 <0>         0.5032
      5 O1         -1.3505   -0.4878   -2.3605 O.3       1 <0>        -0.6168
      6 C4          0.6642   -1.1511   -3.4765 C.ar      1 <0>        -0.2241
      7 C5         -0.0050   -1.4011   -4.6831 C.ar      1 <0>        -0.0178
      8 C6          0.6923   -1.8385   -5.7676 C.ar      1 <0>        -0.1607
      9 C7          2.0790   -2.0444   -5.6952 C.ar      1 <0>        -0.0639
     10 C8          2.7670   -1.8062   -4.5165 C.ar      1 <0>        -0.0750
     11 C9          2.0664   -1.3544   -3.3889 C.ar      1 <0>         0.2101
     12 N2          2.6909   -1.1102   -2.2280 N.2       1 <0>        -0.5492
     13 C10         2.0154   -0.6795   -1.1736 C.2       1 <0>         0.5034
     14 S1          2.8638   -0.3765    0.2822 S.2       1 <0>        -0.7283
     15 C11         2.8131   -2.5210   -6.8896 C.2       1 <0>         0.5487
     16 O2          4.0136   -2.7011   -6.8331 O.2       1 <0>        -0.4826
     17 N3          2.1500   -2.7551   -8.0393 N.am      1 <0>        -0.6147
     18 C12         2.8376   -3.2016   -9.1580 C.2       1 <0>         0.3593
     19 N4          2.3131   -3.4664  -10.3346 N.2       1 <0>        -0.6001
     20 C13         3.2678   -3.8727  -11.1715 C.2       1 <0>         0.0466
     21 N5          4.4139   -3.8737  -10.5446 N.2       1 <0>        -0.3500
     22 N6          4.1645   -3.4357   -9.2339 N.2       1 <0>        -0.3627
     23 C14         3.0584   -4.2676  -12.6107 C.3       1 <0>         0.5746
     24 F1          3.5254   -3.2477  -13.4467 F         1 <0>        -0.1847
     25 F2          3.7610   -5.4476  -12.8774 F         1 <0>        -0.1806
     26 F3          1.6946   -4.4740  -12.8439 F         1 <0>        -0.1768
     27 H1          1.0039    1.9031    0.0027 H         1 <0>         0.0677
     28 H2         -0.5459    1.8868   -0.8726 H         1 <0>         0.0505
     29 H3         -0.5289    1.8773    0.9072 H         1 <0>         0.0652
     30 H4          0.5293   -0.3651    0.8851 H         1 <0>         0.1148
     31 H5         -1.0205   -0.3814    0.0098 H         1 <0>         0.0837
     32 H6         -1.0717   -1.2474   -4.7519 H         1 <0>         0.1343
     33 H7          0.1722   -2.0296   -6.6947 H         1 <0>         0.1260
     34 H8          3.8338   -1.9670   -4.4665 H         1 <0>         0.1481
     35 H9          1.1917   -2.6114   -8.0844 H         1 <0>         0.4079
@<TRIPOS>BOND
     1    1    2 1
     2    1   27 1
     3    1   28 1
     4    1   29 1
     5    2    3 1
     6    2   30 1
     7    2   31 1
     8    3   13 1
     9    3    4 1
    10    4    5 1
    11    4    6 2
    12    6   11 ar
    13    6    7 ar
    14    7    8 ar
    15    7   32 1
    16    8    9 ar
    17    8   33 1
    18    9   10 ar
    19    9   15 1
    20   10   11 ar
    21   10   34 1
    22   11   12 2
    23   12   13 1
    24   13   14 2
    25   15   16 2
    26   15   17 am
    27   17   35 1
    28   17   18 1
    29   18   19 2
    30   18   22 1
    31   19   20 1
    32   20   23 1
    33   20   21 2
    34   21   22 1
    35   23   24 1
    36   23   25 1
    37   23   26 1
@<TRIPOS>MOLECULE
ZINC06761038
   23    23     0     0     0
SMALL
USER_CHARGES
4-hydroxy-5-sulfooxy-tetrahydropyran-2-carboxylic acid
@<TRIPOS>ATOM
      1 C1          0.8665    5.9697    0.4037 C.3       1 <0>        -0.1573
      2 C2          1.3988    5.0164    1.4781 C.3       1 <0>         0.1082
      3 H1          1.1347    5.3957    2.4653 H         1 <0>         0.0648
      4 C3          0.7705    3.6342    1.2753 C.3       1 <0>         0.0848
      5 H2          1.1020    2.9635    2.0680 H         1 <0>         0.1080
      6 C4         -0.7543    3.7641    1.3176 C.3       1 <0>         0.0334
      7 O1         -1.1804    4.6880    0.3141 O.3       1 <0>        -0.3389
      8 C5         -0.6620    6.0094    0.4797 C.3       1 <0>         0.0482
      9 H3         -0.9677    6.4008    1.4500 H         1 <0>         0.0527
     10 C6         -1.1966    6.8997   -0.6124 C.2       1 <0>         0.4780
     11 O2         -1.8721    6.4308   -1.4976 O.co2     1 <0>        -0.6130
     12 O3          1.1700    3.1094    0.0076 O.3       1 <0>        -0.7498
     13 S1          1.3708    1.6007   -0.0024 S.o2      1 <0>         2.7778
     14 O4          1.9822    1.2642    1.2353 O.2       1 <0>        -1.0994
     15 O5          1.9585    1.2775   -1.2552 O.2       1 <0>        -1.0689
     16 O6          2.8199    4.9165    1.3669 O.3       1 <0>        -0.5542
     17 H4          1.2657    6.9696    0.5737 H         1 <0>         0.0752
     18 H5          1.1741    5.6172   -0.5808 H         1 <0>         0.0858
     19 H6         -1.2074    2.7904    1.1312 H         1 <0>         0.1207
     20 H7         -1.0612    4.1262    2.2989 H         1 <0>         0.0564
     21 H8          3.2837    5.7568    1.4849 H         1 <0>         0.3690
     22 O7         -0.9222    8.2136   -0.6017 O.co2     1 <0>        -0.7729
     23 O8         -0.0110    0.9628    0.0073 O.3       1 <0>        -1.1086
@<TRIPOS>BOND
     1    1    8 1
     2    1    2 1
     3    1   17 1
     4    1   18 1
     5    2    3 1
     6    2    4 1
     7    2   16 1
     8    4    5 1
     9    4    6 1
    10    4   12 1
    11    6    7 1
    12    6   19 1
    13    6   20 1
    14    7    8 1
    15    8    9 1
    16    8   10 1
    17   10   11 2
    18   10   22 1
    19   12   13 1
    20   13   14 2
    21   13   15 2
    22   13   23 1
    23   16   21 1
@<TRIPOS>MOLECULE
ZINC24868898
   39    39     0     0     0
SMALL
USER_CHARGES
4-[4-[(2S)-2-hydroxy-3-sulfo-propyl]piperazin-1-yl]-4-oxo-butanoic acid
@<TRIPOS>ATOM
      1 C1         -0.3309    1.2867    0.0338 C.3       1 <0>         0.0339
      2 C2         -1.1614    1.9922   -1.0436 C.3       1 <0>         0.1153
      3 N1         -1.0842    3.4434   -0.8173 N.am      1 <0>        -0.6174
      4 C3         -1.3831    3.9547    0.5289 C.3       1 <0>         0.1112
      5 C4         -0.5439    3.1719    1.5444 C.3       1 <0>         0.0295
      6 N2         -0.7750    1.7329    1.3610 N.3       1 <0>        -0.5319
      7 C5         -0.1234    0.9550    2.4232 C.3       1 <0>         0.0699
      8 C6          1.3213    1.4303    2.5904 C.3       1 <0>         0.0948
      9 H1          1.3699    2.5219    2.7171 H         1 <0>         0.0612
     10 C7          1.9629    0.7053    3.7751 C.3       1 <0>        -0.7062
     11 S1          3.6239    1.3739    4.0657 S.o2      1 <0>         2.6356
     12 O1          4.4841    1.0335    2.9870 O.2       1 <0>        -1.0505
     13 O2          3.5378    2.7148    4.5282 O.2       1 <0>        -1.0509
     14 O3          4.1601    0.5872    5.2531 O.3       1 <0>        -1.0874
     15 O4          2.0581    1.1426    1.4002 O.3       1 <0>        -0.6031
     16 C8         -0.7479    4.2825   -1.8170 C.2       1 <0>         0.5158
     17 O5         -0.5042    3.8435   -2.9210 O.2       1 <0>        -0.5488
     18 C9         -0.6748    5.7661   -1.5631 C.3       1 <0>        -0.1184
     19 C10        -0.2748    6.4852   -2.8530 C.3       1 <0>        -0.1406
     20 C11        -0.2017    7.9689   -2.5990 C.2       1 <0>         0.4617
     21 O6         -0.4445    8.4062   -1.4992 O.co2     1 <0>        -0.6434
     22 O7          0.1332    8.8045   -3.5946 O.co2     1 <0>        -0.7774
     23 H2          0.7322    1.5354   -0.0999 H         1 <0>         0.0735
     24 H3         -0.4663    0.1984   -0.0515 H         1 <0>         0.0767
     25 H4         -0.7588    1.7454   -2.0371 H         1 <0>         0.0907
     26 H5         -2.2072    1.6574   -0.9783 H         1 <0>         0.0633
     27 H6         -1.1313    5.0243    0.5791 H         1 <0>         0.0970
     28 H7         -2.4535    3.8196    0.7432 H         1 <0>         0.0722
     29 H8          0.5219    3.3958    1.3895 H         1 <0>         0.0514
     30 H9         -0.8355    3.4641    2.5640 H         1 <0>         0.0867
     31 H10        -0.6679    1.0971    3.3684 H         1 <0>         0.0884
     32 H11        -0.1297   -0.1113    2.1532 H         1 <0>         0.0799
     33 H12         1.3457    0.8534    4.6735 H         1 <0>         0.1133
     34 H13         2.0341   -0.3695    3.5523 H         1 <0>         0.1143
     35 H14         3.1221    1.4135    1.3330 H         1 <0>         0.4156
     36 H15        -1.6580    6.1300   -1.2302 H         1 <0>         0.0913
     37 H16         0.0742    5.9682   -0.7833 H         1 <0>         0.0937
     38 H17         0.7084    6.1213   -3.1859 H         1 <0>         0.0705
     39 H18        -1.0238    6.2831   -3.6329 H         1 <0>         0.0688
@<TRIPOS>BOND
     1    1    6 1
     2    1    2 1
     3    1   23 1
     4    1   24 1
     5    2    3 1
     6    2   25 1
     7    2   26 1
     8    3    4 1
     9    3   16 am
    10    4    5 1
    11    4   27 1
    12    4   28 1
    13    5    6 1
    14    5   29 1
    15    5   30 1
    16    6    7 1
    17    7    8 1
    18    7   31 1
    19    7   32 1
    20    8    9 1
    21    8   10 1
    22    8   15 1
    23   10   11 1
    24   10   33 1
    25   10   34 1
    26   11   12 2
    27   11   13 2
    28   11   14 1
    29   15   35 1
    30   16   17 2
    31   16   18 1
    32   18   19 1
    33   18   36 1
    34   18   37 1
    35   19   20 1
    36   19   38 1
    37   19   39 1
    38   20   21 2
    39   20   22 1
@<TRIPOS>MOLECULE
ZINC37584312
   26    26     0     0     0
SMALL
USER_CHARGES

@<TRIPOS>ATOM
      1 C1         -0.0162    1.3448    0.0094 C.2       1 <0>        -0.0448
      2 C2          1.2754    1.9886    0.0006 C.2       1 <0>        -0.1639
      3 C3          2.3801    1.1674   -0.0144 C.2       1 <0>        -0.1915
      4 S1          1.7407   -0.3838   -0.0166 S.3       1 <0>         0.2183
      5 C4          0.0021   -0.0041    0.0020 C.2       1 <0>        -0.2266
      6 Br1        -1.4627   -1.2000    0.0101 Br        1 <0>         0.0232
      7 C5          1.4054    3.4547    0.0067 C.2       1 <0>         0.5610
      8 O1          0.4099    4.1535    0.0196 O.2       1 <0>        -0.5518
      9 N1          2.6275    4.0229   -0.0019 N.am      1 <0>        -0.6736
     10 C6          2.7569    5.4821    0.0042 C.3       1 <0>         0.0743
     11 H1          1.9450    5.9213   -0.5754 H         1 <0>         0.0786
     12 C7          4.0984    5.8778   -0.6160 C.3       1 <0>        -0.0824
     13 C8          4.1160    5.4760   -2.0922 C.3       1 <0>        -0.1774
     14 C9          5.4374    5.8657   -2.7032 C.2       1 <0>         0.4911
     15 O2          6.2863    6.4140   -2.0211 O.co2     1 <0>        -0.6973
     16 O3          5.6575    5.6328   -3.8795 O.co2     1 <0>        -0.7192
     17 C10         2.6912    5.9863    1.4229 C.2       1 <0>         0.4982
     18 O4          3.0892    5.2856    2.3379 O.co2     1 <0>        -0.6989
     19 O5          2.2402    7.0948    1.6556 O.co2     1 <0>        -0.6999
     20 H2         -0.9383    1.9069    0.0256 H         1 <0>         0.1566
     21 H3          3.4208    1.4558   -0.0231 H         1 <0>         0.1985
     22 H4          3.4214    3.4656   -0.0121 H         1 <0>         0.3901
     23 H5          4.2340    6.9560   -0.5312 H         1 <0>         0.0735
     24 H6          4.9060    5.3676   -0.0910 H         1 <0>         0.0603
     25 H7          3.9804    4.3978   -2.1770 H         1 <0>         0.0505
     26 H8          3.3085    5.9862   -2.6172 H         1 <0>         0.0530
@<TRIPOS>BOND
     1    1    5 2
     2    1    2 1
     3    1   20 1
     4    2    3 2
     5    2    7 1
     6    3    4 1
     7    3   21 1
     8    4    5 1
     9    5    6 1
    10    7    8 2
    11    7    9 am
    12    9   10 1
    13    9   22 1
    14   10   11 1
    15   10   12 1
    16   10   17 1
    17   12   13 1
    18   12   23 1
    19   12   24 1
    20   13   14 1
    21   13   25 1
    22   13   26 1
    23   14   15 2
    24   14   16 1
    25   17   18 2
    26   17   19 1
@<TRIPOS>MOLECULE
ZINC44929702
   26    27     0     0     0
SMALL
USER_CHARGES

@<TRIPOS>ATOM
      1 C1          0.9240    1.5714    0.0429 C.3       1 <0>        -0.1460
      2 C2          0.2554    0.2062   -0.1309 C.3       1 <0>         0.2702
      3 H1         -0.8179    0.3416   -0.2640 H         1 <0>         0.0808
      4 C3          0.5076   -0.6361    1.0930 C.2       1 <0>         0.0551
      5 N1         -0.3631   -0.9179    2.0513 N.2       1 <0>        -0.3846
      6 N2          0.2366   -1.6628    2.9161 N.2       1 <0>        -0.2059
      7 N3          1.4504   -1.8565    2.5327 N.2       1 <0>        -0.2058
      8 N4          1.6409   -1.2424    1.4151 N.2       1 <0>        -0.3716
      9 N5          0.8128   -0.4641   -1.3083 N.pl3     1 <0>        -1.0692
     10 S1         -0.1926   -0.9947   -2.5125 S.o2      1 <0>         2.7238
     11 O1          0.6400   -1.5470   -3.5229 O.2       1 <0>        -0.9285
     12 O2         -1.2229   -1.7426   -1.8812 O.2       1 <0>        -0.9785
     13 C4         -0.9605    0.4274   -3.2144 C.2       1 <0>        -0.4736
     14 C5         -0.3246    1.4487   -3.8964 C.2       1 <0>        -0.1545
     15 C6         -1.3213    2.3762   -4.2798 C.2       1 <0>         0.0583
     16 N6         -2.4704    1.9322   -3.8525 N.2       1 <0>        -0.2863
     17 N7         -2.2701    0.7159   -3.1906 N.pl3     1 <0>        -0.4225
     18 H2         -2.9622    0.1733   -2.7813 H         1 <0>         0.4398
     19 C7          1.1162    1.5514   -4.1705 C.2       1 <0>         0.5386
     20 O3          1.5430    2.4620   -4.8673 O.co2     1 <0>        -0.6882
     21 O4          1.8884    0.7262   -3.7017 O.co2     1 <0>        -0.6572
     22 H3          1.9974    1.4360    0.1760 H         1 <0>         0.0661
     23 H4          0.7417    2.1806   -0.8423 H         1 <0>         0.0611
     24 H5          0.5093    2.0701    0.9190 H         1 <0>         0.0565
     25 H6          1.7708   -0.5971   -1.3826 H         1 <0>         0.4304
     26 H7         -1.1589    3.2915   -4.8296 H         1 <0>         0.1915
@<TRIPOS>BOND
     1    1    2 1
     2    1   22 1
     3    1   23 1
     4    1   24 1
     5    2    3 1
     6    2    4 1
     7    2    9 1
     8    4    5 1
     9    4    8 2
    10    5    6 1
    11    6    7 2
    12    7    8 1
    13    9   10 1
    14    9   25 1
    15   10   11 2
    16   10   12 2
    17   10   13 1
    18   13   17 1
    19   13   14 2
    20   14   15 1
    21   14   19 1
    22   15   16 2
    23   15   26 1
    24   16   17 1
    25   17   18 1
    26   19   20 2
    27   19   21 1
@<TRIPOS>MOLECULE
ZINC27499236
   18    19     0     0     0
SMALL
USER_CHARGES

@<TRIPOS>ATOM
      1 C1         -0.0127    1.0858    0.0080 C.3       1 <0>         0.2343
      2 H1          0.0021   -0.0041    0.0020 H         1 <0>         0.0228
      3 C2         -0.4763    1.5689   -1.4061 C.3       1 <0>         0.2468
      4 H2         -0.6024    2.6509   -1.3682 H         1 <0>         0.0230
      5 N1          0.7072    1.2691   -2.1665 N.2       1 <0>        -0.7224
      6 C3          1.7513    1.4674   -1.3048 C.2       1 <0>         0.4878
      7 N2          3.0371    1.5580   -1.6952 N.2       1 <0>        -0.3784
      8 N3          3.9654    1.7460   -0.8193 N.pl3     1 <0>         0.2740
      9 O1          3.6557    1.8492    0.4566 O.2       1 <0>        -0.4402
     10 O2          5.2227    1.8346   -1.2010 O.3       1 <0>        -0.4901
     11 N4          1.3433    1.5638   -0.0024 N.2       1 <0>        -0.6827
     12 N5         -1.7696    0.9578   -1.5837 N.pl3     1 <0>        -1.0846
     13 S1         -2.4392    1.1433   -0.0418 S.o2      1 <0>         2.7740
     14 O3         -2.9154   -0.1303    0.3709 O.2       1 <0>        -1.0078
     15 O4         -3.2545    2.3068   -0.0697 O.2       1 <0>        -1.0074
     16 N6         -1.0715    1.5284    0.8796 N.pl3     1 <0>        -1.0839
     17 H3         -2.1533    0.5497   -2.3757 H         1 <0>         0.4168
     18 H4         -1.0160    1.9134    1.7682 H         1 <0>         0.4178
@<TRIPOS>BOND
     1    1    2 1
     2    1   11 1
     3    1   16 1
     4    1    3 1
     5    3    4 1
     6    3    5 1
     7    3   12 1
     8    5    6 1
     9    6    7 2
    10    6   11 1
    11    7    8 1
    12    8    9 2
    13    8   10 1
    14   12   13 1
    15   12   17 1
    16   13   14 2
    17   13   15 2
    18   13   16 1
    19   16   18 1
@<TRIPOS>MOLECULE
ZINC04096465
   36    36     0     0     0
SMALL
USER_CHARGES
5-acetylamino-4-hydroxy-6-(1,2,3-trihydroxypropyl)-5,6-dihydro-4H-pyran-2-carboxylic acid
@<TRIPOS>ATOM
      1 C1          7.0340    4.9939    1.3546 C.3       1 <0>        -0.1688
      2 C2          6.0364    5.4540    0.3231 C.2       1 <0>         0.5070
      3 O1          6.4185    5.8276   -0.7657 O.2       1 <0>        -0.5174
      4 N1          4.7197    5.4505    0.6105 N.am      1 <0>        -0.7274
      5 C3          3.7499    5.8978   -0.3923 C.3       1 <0>         0.1141
      6 H1          4.0953    5.6200   -1.3881 H         1 <0>         0.1103
      7 C4          3.5840    7.4189   -0.3095 C.3       1 <0>         0.1476
      8 H2          3.4577    7.7138    0.7322 H         1 <0>         0.0553
      9 C5          2.3729    7.8353   -1.0991 C.2       1 <0>        -0.3118
     10 C6          1.4301    6.9752   -1.4549 C.2       1 <0>         0.0855
     11 O2          1.4793    5.6564   -1.1473 O.3       1 <0>        -0.2670
     12 C7          2.3858    5.2500   -0.1183 C.3       1 <0>         0.0528
     13 H3          2.0116    5.5781    0.8515 H         1 <0>         0.0853
     14 C8          2.5273    3.7266   -0.1278 C.3       1 <0>         0.0970
     15 H4          3.1558    3.4149    0.7064 H         1 <0>         0.0709
     16 C9          1.1449    3.0852    0.0077 C.3       1 <0>         0.1138
     17 H5          0.5164    3.3969   -0.8265 H         1 <0>         0.1329
     18 C10         1.2864    1.5618   -0.0018 C.3       1 <0>         0.0517
     19 O3         -0.0110    0.9628    0.0073 O.3       1 <0>        -0.5607
     20 O4          0.5456    3.5002    1.2368 O.3       1 <0>        -0.5333
     21 O5          3.1266    3.3116   -1.3569 O.3       1 <0>        -0.5450
     22 C11         0.2751    7.4755   -2.2209 C.2       1 <0>         0.4995
     23 O6          0.2030    8.6532   -2.5117 O.co2     1 <0>        -0.6142
     24 O7          4.7452    8.0549   -0.8473 O.3       1 <0>        -0.5433
     25 H6          6.5080    4.6987    2.2625 H         1 <0>         0.0725
     26 H7          7.5928    4.1428    0.9654 H         1 <0>         0.0927
     27 H8          7.7229    5.8074    1.5821 H         1 <0>         0.0933
     28 H9          4.4141    5.1518    1.4813 H         1 <0>         0.3968
     29 H10         2.2682    8.8714   -1.3855 H         1 <0>         0.1384
     30 H11         1.8401    1.2428    0.8812 H         1 <0>         0.0414
     31 H12         1.8231    1.2523   -0.8987 H         1 <0>         0.0659
     32 H13         0.0021   -0.0041    0.0020 H         1 <0>         0.3750
     33 H14         1.0519    3.2558    2.0235 H         1 <0>         0.3627
     34 H15         4.0072    3.6809   -1.5095 H         1 <0>         0.3803
     35 H16         4.7095    9.0210   -0.8268 H         1 <0>         0.3741
     36 O8         -0.7014    6.6270   -2.5991 O.co2     1 <0>        -0.7280
@<TRIPOS>BOND
     1    1    2 1
     2    1   25 1
     3    1   26 1
     4    1   27 1
     5    2    3 2
     6    2    4 am
     7    4    5 1
     8    4   28 1
     9    5    6 1
    10    5   12 1
    11    5    7 1
    12    7    8 1
    13    7    9 1
    14    7   24 1
    15    9   10 2
    16    9   29 1
    17   10   11 1
    18   10   22 1
    19   11   12 1
    20   12   13 1
    21   12   14 1
    22   14   15 1
    23   14   16 1
    24   14   21 1
    25   16   17 1
    26   16   18 1
    27   16   20 1
    28   18   19 1
    29   18   30 1
    30   18   31 1
    31   19   32 1
    32   20   33 1
    33   21   34 1
    34   22   23 2
    35   22   36 1
    36   24   35 1
@<TRIPOS>MOLECULE
ZINC40429055
   33    33     0     0     0
SMALL
USER_CHARGES

@<TRIPOS>ATOM
      1 C1         -0.0188    1.5384    0.0105 C.3       1 <0>        -0.1212
      2 C2          1.4774    1.9387   -0.0016 C.3       1 <0>        -0.1205
      3 C3          2.1065    0.8811   -0.9423 C.3       1 <0>        -0.1094
      4 C4          1.3534   -0.4220   -0.6038 C.3       1 <0>         0.1190
      5 C5          0.0021   -0.0041    0.0020 C.3       1 <0>        -0.1006
      6 C6          1.1299   -1.2294   -1.8565 C.2       1 <0>         0.5025
      7 O1          1.5916   -2.3542   -1.9472 O.co2     1 <0>        -0.6746
      8 O2          0.4875   -0.7578   -2.7792 O.co2     1 <0>        -0.7024
      9 N1          2.1186   -1.2056    0.3692 N.am      1 <0>        -0.7185
     10 C7          1.6418   -2.3879    0.8067 C.2       1 <0>         0.7106
     11 O3          0.5766   -2.8041    0.3939 O.2       1 <0>        -0.5620
     12 N2          2.3458   -3.1088    1.7018 N.am      1 <0>        -0.7605
     13 C8          1.8276   -4.3939    2.1773 C.3       1 <0>         0.1574
     14 C9          2.8118   -5.0016    3.1787 C.3       1 <0>        -0.1527
     15 C10         2.2787   -6.3236    3.6679 C.2       1 <0>         0.5204
     16 O4          1.2161   -6.7387    3.2562 O.2       1 <0>        -0.5327
     17 N3          2.9827   -7.0445    4.5630 N.am      1 <0>        -0.8597
     18 H1         -0.5054    1.9084    0.9130 H         1 <0>         0.0542
     19 H2         -0.5225    1.9180   -0.8785 H         1 <0>         0.0657
     20 H3          1.6056    2.9420   -0.4079 H         1 <0>         0.0597
     21 H4          1.9042    1.8684    0.9989 H         1 <0>         0.0582
     22 H5          1.9461    1.1545   -1.9852 H         1 <0>         0.0839
     23 H6          3.1710    0.7713   -0.7351 H         1 <0>         0.0575
     24 H7         -0.0844   -0.3843    1.0199 H         1 <0>         0.0536
     25 H8         -0.8154   -0.3852   -0.6101 H         1 <0>         0.0697
     26 H9          2.9685   -0.8736    0.6985 H         1 <0>         0.3776
     27 H10         3.1957   -2.7767    2.0311 H         1 <0>         0.3849
     28 H11         0.8639   -4.2398    2.6629 H         1 <0>         0.0682
     29 H12         1.7044   -5.0712    1.3322 H         1 <0>         0.0720
     30 H13         3.7754   -5.1557    2.6932 H         1 <0>         0.1003
     31 H14         2.9350   -4.3243    4.0238 H         1 <0>         0.0985
     32 H15         3.8325   -6.7124    4.8923 H         1 <0>         0.4004
     33 H16         2.6395   -7.8953    4.8779 H         1 <0>         0.4005
@<TRIPOS>BOND
     1    1    5 1
     2    1    2 1
     3    1   18 1
     4    1   19 1
     5    2    3 1
     6    2   20 1
     7    2   21 1
     8    3    4 1
     9    3   22 1
    10    3   23 1
    11    4    5 1
    12    4    6 1
    13    4    9 1
    14    5   24 1
    15    5   25 1
    16    6    7 2
    17    6    8 1
    18    9   10 am
    19    9   26 1
    20   10   11 2
    21   10   12 am
    22   12   13 1
    23   12   27 1
    24   13   14 1
    25   13   28 1
    26   13   29 1
    27   14   15 1
    28   14   30 1
    29   14   31 1
    30   15   16 2
    31   15   17 am
    32   17   32 1
    33   17   33 1
@<TRIPOS>MOLECULE
ZINC41035868
   36    36     0     0     0
SMALL
USER_CHARGES

@<TRIPOS>ATOM
      1 C1         -0.0187    1.5258    0.0104 C.3       1 <0>        -0.1444
      2 C2          0.0021   -0.0041    0.0020 C.3       1 <0>        -0.0928
      3 H1          0.5123   -0.3556   -0.8948 H         1 <0>         0.0633
      4 C3         -1.4333   -0.5336    0.0129 C.3       1 <0>        -0.1089
      5 C4         -1.4126   -2.0635    0.0045 C.3       1 <0>        -0.1132
      6 C5         -0.6726   -2.5703    1.2440 C.3       1 <0>        -0.1128
      7 C6          0.7628   -2.0407    1.2331 C.3       1 <0>         0.1289
      8 C7          0.7421   -0.5109    1.2415 C.3       1 <0>        -0.0981
      9 C8          1.4917   -2.5400    2.4540 C.2       1 <0>         0.5007
     10 O1          2.4913   -3.2267    2.3289 O.co2     1 <0>        -0.6749
     11 O2          1.0818   -2.2571    3.5669 O.co2     1 <0>        -0.7037
     12 N1          1.4485   -2.5132    0.0278 N.am      1 <0>        -0.7132
     13 C9          1.5876   -3.8353   -0.1939 C.2       1 <0>         0.7172
     14 O3          1.1439   -4.6359    0.6064 O.2       1 <0>        -0.5703
     15 N2          2.2184   -4.2700   -1.3028 N.am      1 <0>        -0.7490
     16 C10         2.3696   -5.7071   -1.5438 C.3       1 <0>         0.1246
     17 C11         3.1047   -5.9242   -2.8413 C.2       1 <0>         0.5157
     18 O4          3.4667   -4.9723   -3.4998 O.2       1 <0>        -0.5428
     19 N3          3.3598   -7.1763   -3.2699 N.am      1 <0>        -0.8528
     20 H2          1.0039    1.9031    0.0027 H         1 <0>         0.0517
     21 H3         -0.5459    1.8868   -0.8726 H         1 <0>         0.0484
     22 H4         -0.5289    1.8773    0.9072 H         1 <0>         0.0537
     23 H5         -1.9435   -0.1821    0.9097 H         1 <0>         0.0600
     24 H6         -1.9605   -0.1726   -0.8702 H         1 <0>         0.0516
     25 H7         -2.4352   -2.4408    0.0122 H         1 <0>         0.0508
     26 H8         -0.9024   -2.4150   -0.8923 H         1 <0>         0.0544
     27 H9         -1.1828   -2.2188    2.1408 H         1 <0>         0.0668
     28 H10        -0.6578   -3.6602    1.2380 H         1 <0>         0.0771
     29 H11         1.7647   -0.1336    1.2338 H         1 <0>         0.0576
     30 H12         0.2319   -0.1594    2.1383 H         1 <0>         0.0802
     31 H13         1.8025   -1.8745   -0.6107 H         1 <0>         0.3800
     32 H14         2.5724   -3.6312   -1.9413 H         1 <0>         0.3984
     33 H15         2.9348   -6.1550   -0.7266 H         1 <0>         0.0963
     34 H16         1.3851   -6.1713   -1.6019 H         1 <0>         0.0924
     35 H17         3.0703   -7.9377   -2.7431 H         1 <0>         0.4048
     36 H18         3.8330   -7.3161   -4.1050 H         1 <0>         0.4022
@<TRIPOS>BOND
     1    1    2 1
     2    1   20 1
     3    1   21 1
     4    1   22 1
     5    2    3 1
     6    2    8 1
     7    2    4 1
     8    4    5 1
     9    4   23 1
    10    4   24 1
    11    5    6 1
    12    5   25 1
    13    5   26 1
    14    6    7 1
    15    6   27 1
    16    6   28 1
    17    7    8 1
    18    7    9 1
    19    7   12 1
    20    8   29 1
    21    8   30 1
    22    9   10 2
    23    9   11 1
    24   12   13 am
    25   12   31 1
    26   13   14 2
    27   13   15 am
    28   15   16 1
    29   15   32 1
    30   16   17 1
    31   16   33 1
    32   16   34 1
    33   17   18 2
    34   17   19 am
    35   19   35 1
    36   19   36 1
@<TRIPOS>MOLECULE
ZINC44976510
   31    31     0     0     0
SMALL
USER_CHARGES

@<TRIPOS>ATOM
      1 C1         -0.0187    1.5258    0.0104 C.3       1 <0>        -0.1501
      2 C2          0.0021   -0.0041    0.0020 C.3       1 <0>        -0.1331
      3 C3         -1.4333   -0.5336    0.0129 C.3       1 <0>        -0.0953
      4 C4         -1.4126   -2.0635    0.0045 C.3       1 <0>        -0.0491
      5 H1         -0.8102   -2.4233    0.8386 H         1 <0>         0.1179
      6 C5         -0.8177   -2.5507   -1.2916 C.2       1 <0>         0.3677
      7 N1         -1.5893   -2.8630   -2.2795 N.2       1 <0>        -0.3981
      8 O1         -1.0304   -3.3208   -3.4973 O.3       1 <0>        -0.4258
      9 N2          0.5487   -2.6630   -1.4229 N.pl3     1 <0>        -0.8699
     10 C6         -2.8198   -2.5857    0.1389 C.2       1 <0>         0.5331
     11 O2         -3.7479   -1.8106    0.2323 O.2       1 <0>        -0.5412
     12 N3         -3.0469   -3.9141    0.1554 N.am      1 <0>        -0.7013
     13 C7         -4.4149   -4.4217    0.2862 C.3       1 <0>         0.2417
     14 C8         -4.3945   -5.9286    0.2779 C.2       1 <0>         0.0293
     15 N4         -4.4808   -6.7141   -0.7858 N.2       1 <0>        -0.3696
     16 N5         -4.4255   -7.9347   -0.3743 N.2       1 <0>        -0.1946
     17 N6         -4.3077   -7.9402    0.9078 N.2       1 <0>        -0.1947
     18 N7         -4.2809   -6.7230    1.3323 N.2       1 <0>        -0.3742
     19 H2          1.0039    1.9031    0.0027 H         1 <0>         0.0527
     20 H3         -0.5459    1.8868   -0.8726 H         1 <0>         0.0542
     21 H4         -0.5289    1.8773    0.9072 H         1 <0>         0.0560
     22 H5          0.5123   -0.3556   -0.8948 H         1 <0>         0.0670
     23 H6          0.5293   -0.3651    0.8851 H         1 <0>         0.0634
     24 H7         -1.9435   -0.1821    0.9097 H         1 <0>         0.0858
     25 H8         -1.9605   -0.1726   -0.8702 H         1 <0>         0.0772
     26 H9         -1.6858   -3.5296   -4.1769 H         1 <0>         0.4015
     27 H10         1.1281   -2.4285   -0.6812 H         1 <0>         0.3948
     28 H11         0.9316   -2.9766   -2.2572 H         1 <0>         0.4062
     29 H12        -2.3046   -4.5340    0.0808 H         1 <0>         0.3988
     30 H13        -4.8452   -4.0694    1.2236 H         1 <0>         0.0746
     31 H14        -5.0172   -4.0619   -0.5480 H         1 <0>         0.0752
@<TRIPOS>BOND
     1    1    2 1
     2    1   19 1
     3    1   20 1
     4    1   21 1
     5    2    3 1
     6    2   22 1
     7    2   23 1
     8    3    4 1
     9    3   24 1
    10    3   25 1
    11    4    5 1
    12    4    6 1
    13    4   10 1
    14    6    7 2
    15    6    9 1
    16    7    8 1
    17    8   26 1
    18    9   27 1
    19    9   28 1
    20   10   11 2
    21   10   12 am
    22   12   13 1
    23   12   29 1
    24   13   14 1
    25   13   30 1
    26   13   31 1
    27   14   18 2
    28   14   15 1
    29   15   16 1
    30   16   17 2
    31   17   18 1
@<TRIPOS>MOLECULE
ZINC54524740
   30    30     0     0     0
SMALL
USER_CHARGES

@<TRIPOS>ATOM
      1 C1         -0.0187    1.5258    0.0104 C.3       1 <0>        -0.1636
      2 C2          1.3165    0.7789   -0.0063 C.3       1 <0>        -0.1876
      3 C3          0.0021   -0.0041    0.0020 C.3       1 <0>        -0.1396
      4 C4         -0.4085   -0.7090   -1.2923 C.3       1 <0>         0.1225
      5 H1          0.2605   -0.4075   -2.0983 H         1 <0>         0.0816
      6 C5         -1.8233   -0.3280   -1.6448 C.2       1 <0>         0.4966
      7 O1         -2.0354    0.6452   -2.3479 O.co2     1 <0>        -0.6932
      8 O2         -2.7558   -0.9931   -1.2270 O.co2     1 <0>        -0.6934
      9 N1         -0.3255   -2.1597   -1.1058 N.am      1 <0>        -0.7101
     10 C6         -0.1406   -2.9665   -2.1695 C.2       1 <0>         0.7041
     11 O3         -0.0427   -2.4903   -3.2839 O.2       1 <0>        -0.5893
     12 N2         -0.0642   -4.3011   -1.9978 N.am      1 <0>        -0.7553
     13 C7          0.1367   -5.1780   -3.1541 C.3       1 <0>         0.1551
     14 C8          0.1868   -6.6342   -2.6872 C.3       1 <0>        -0.1538
     15 C9          0.3935   -7.5362   -3.8766 C.2       1 <0>         0.5211
     16 O4          0.4912   -7.0612   -4.9882 O.2       1 <0>        -0.5340
     17 N3          0.4699   -8.8708   -3.7049 N.am      1 <0>        -0.8588
     18 H2         -0.3072    2.0201    0.9381 H         1 <0>         0.0886
     19 H3         -0.3248    2.0300   -0.9061 H         1 <0>         0.1067
     20 H4          1.8888    0.7918   -0.9339 H         1 <0>         0.0907
     21 H5          1.9064    0.7818    0.9103 H         1 <0>         0.0864
     22 H6         -0.2728   -0.5162    0.9241 H         1 <0>         0.1000
     23 H7         -0.4036   -2.5397   -0.2167 H         1 <0>         0.3873
     24 H8         -0.1423   -4.6810   -1.1088 H         1 <0>         0.3904
     25 H9         -0.6878   -5.0494   -3.8553 H         1 <0>         0.0723
     26 H10         1.0751   -4.9216   -3.6458 H         1 <0>         0.0710
     27 H11         1.0114   -6.7627   -1.9860 H         1 <0>         0.1003
     28 H12        -0.7516   -6.8905   -2.1955 H         1 <0>         0.1019
     29 H13         0.3918   -9.2507   -2.8159 H         1 <0>         0.4010
     30 H14         0.6030   -9.4514   -4.4705 H         1 <0>         0.4011
@<TRIPOS>BOND
     1    1    3 1
     2    1    2 1
     3    1   18 1
     4    1   19 1
     5    2    3 1
     6    2   20 1
     7    2   21 1
     8    3    4 1
     9    3   22 1
    10    4    5 1
    11    4    6 1
    12    4    9 1
    13    6    7 2
    14    6    8 1
    15    9   10 am
    16    9   23 1
    17   10   11 2
    18   10   12 am
    19   12   13 1
    20   12   24 1
    21   13   14 1
    22   13   25 1
    23   13   26 1
    24   14   15 1
    25   14   27 1
    26   14   28 1
    27   15   16 2
    28   15   17 am
    29   17   29 1
    30   17   30 1
@<TRIPOS>MOLECULE
ZINC17721961
   27    28     0     0     0
SMALL
USER_CHARGES

@<TRIPOS>ATOM
      1 C1         -0.0187    1.5258    0.0104 C.3       1 <0>        -0.1670
      2 C2          0.0021   -0.0041    0.0020 C.3       1 <0>         0.0679
      3 H1          0.5123   -0.3556   -0.8948 H         1 <0>         0.0833
      4 C3          0.7309   -0.5033    1.2229 C.2       1 <0>         0.4336
      5 O1          0.1067   -0.9763    2.1522 O.2       1 <0>        -0.4943
      6 C4          2.1325   -0.4219    1.2868 C.2       1 <0>        -0.1952
      7 N1          2.8139    0.0928    0.2894 N.2       1 <0>        -0.2675
      8 C5          4.1407    0.1841    0.3203 C.2       1 <0>        -0.2381
      9 C6          4.8466    0.7428   -0.7681 C.2       1 <0>         0.5371
     10 O2          4.1798    1.1911   -1.8537 O.3       1 <0>        -0.6044
     11 N2          6.1720    0.8242   -0.7153 N.2       1 <0>        -0.6389
     12 C7          6.8751    0.4043    0.3161 C.2       1 <0>         0.6751
     13 N3          6.3006   -0.1506    1.4191 N.pl3     1 <0>        -0.6451
     14 C8          4.9260   -0.2846    1.4718 C.2       1 <0>         0.4111
     15 N4          4.3403   -0.8128    2.5140 N.2       1 <0>        -0.6024
     16 C9          2.8723   -0.9200    2.5073 C.3       1 <0>         0.1251
     17 N5          8.2337    0.5299    0.2779 N.pl3     1 <0>        -0.8261
     18 O3         -1.3386   -0.4987    0.0122 O.3       1 <0>        -0.5575
     19 H2          1.0039    1.9031    0.0027 H         1 <0>         0.0817
     20 H3         -0.5459    1.8868   -0.8726 H         1 <0>         0.0583
     21 H4         -0.5289    1.8773    0.9072 H         1 <0>         0.0549
     22 H5          2.4920   -0.3758    3.3718 H         1 <0>         0.0502
     23 H6          2.6184   -1.9712    2.6439 H         1 <0>         0.0501
     24 H7          8.6629    0.9222   -0.4986 H         1 <0>         0.4258
     25 H8         -1.8677   -0.2163   -0.7464 H         1 <0>         0.3700
     26 H9          6.8506   -0.4485    2.1605 H         1 <0>         0.4052
     27 H10         8.7701    0.2269    1.0272 H         1 <0>         0.4072
@<TRIPOS>BOND
     1    1    2 1
     2    1   19 1
     3    1   20 1
     4    1   21 1
     5    2    3 1
     6    2    4 1
     7    2   18 1
     8    4    5 2
     9    4    6 1
    10    6   16 1
    11    6    7 2
    12    7    8 1
    13    8   14 1
    14    8    9 2
    15    9   10 1
    16    9   11 1
    17   11   12 2
    18   12   13 1
    19   12   17 1
    20   13   14 1
    21   13   26 1
    22   14   15 2
    23   15   16 1
    24   16   22 1
    25   16   23 1
    26   17   24 1
    27   17   27 1
    28   18   25 1
@<TRIPOS>MOLECULE
ZINC02033534
   35    35     0     0     0
SMALL
USER_CHARGES
2-(4-amino-2-methoxy-benzoyl)aminopentanedioic acid
@<TRIPOS>ATOM
      1 C1          2.2248    5.3207    0.0098 C.3       1 <0>         0.0240
      2 O1          2.3277    3.8955    0.0012 O.3       1 <0>        -0.2715
      3 C2          1.1665    3.1941    0.0081 C.ar      1 <0>         0.2234
      4 C3         -0.0473    3.8586    0.0232 C.ar      1 <0>        -0.3033
      5 C4         -1.2329    3.1344    0.0307 C.ar      1 <0>         0.2615
      6 C5         -1.2042    1.7409    0.0172 C.ar      1 <0>        -0.2382
      7 C6         -0.0126    1.0758    0.0080 C.ar      1 <0>        -0.0003
      8 C7          1.1900    1.7906    0.0003 C.ar      1 <0>        -0.2023
      9 C8          2.4756    1.0733   -0.0153 C.2       1 <0>         0.5607
     10 O2          3.5199    1.6969   -0.0219 O.2       1 <0>        -0.5399
     11 N1          2.4954   -0.2743   -0.0223 N.am      1 <0>        -0.6915
     12 C9          3.7746   -0.9880   -0.0379 C.3       1 <0>         0.1028
     13 H1          4.4965   -0.4269   -0.6313 H         1 <0>         0.0844
     14 C10         3.5773   -2.3751   -0.6527 C.3       1 <0>        -0.0858
     15 C11         3.1772   -2.2294   -2.1222 C.3       1 <0>        -0.1525
     16 C12         2.9828   -3.5956   -2.7278 C.2       1 <0>         0.4614
     17 O3          3.1474   -4.5844   -2.0532 O.co2     1 <0>        -0.6393
     18 C13         4.2868   -1.1318    1.3721 C.2       1 <0>         0.4649
     19 O4          3.6488   -0.6839    2.2953 O.co2     1 <0>        -0.6397
     20 N2         -2.4526    3.8022    0.0459 N.pl3     1 <0>        -0.8734
     21 H2          3.2236    5.7572    0.0030 H         1 <0>         0.0969
     22 H3          1.6780    5.6509   -0.8734 H         1 <0>         0.0496
     23 H4          1.6944    5.6413    0.9064 H         1 <0>         0.0498
     24 H5         -0.0729    4.9383    0.0289 H         1 <0>         0.1262
     25 H6         -2.1299    1.1846    0.0186 H         1 <0>         0.1233
     26 H7          0.0021   -0.0041    0.0020 H         1 <0>         0.1348
     27 H8          1.6625   -0.7716   -0.0170 H         1 <0>         0.3877
     28 H9          4.5076   -2.9389   -0.5836 H         1 <0>         0.0832
     29 H10         2.7914   -2.9034   -0.1128 H         1 <0>         0.0563
     30 H11         2.2469   -1.6656   -2.1913 H         1 <0>         0.0581
     31 H12         3.9631   -1.7011   -2.6621 H         1 <0>         0.0603
     32 H13        -2.4746    4.7720    0.0513 H         1 <0>         0.3946
     33 H14        -3.2814    3.2983    0.0511 H         1 <0>         0.3979
     34 O5          2.6269   -3.7140   -4.0166 O.co2     1 <0>        -0.7919
     35 O6          5.4519   -1.7573    1.6024 O.co2     1 <0>        -0.7726
@<TRIPOS>BOND
     1    1    2 1
     2    1   21 1
     3    1   22 1
     4    1   23 1
     5    2    3 1
     6    3    8 ar
     7    3    4 ar
     8    4    5 ar
     9    4   24 1
    10    5    6 ar
    11    5   20 1
    12    6    7 ar
    13    6   25 1
    14    7    8 ar
    15    7   26 1
    16    8    9 1
    17    9   10 2
    18    9   11 am
    19   11   12 1
    20   11   27 1
    21   12   13 1
    22   12   14 1
    23   12   18 1
    24   14   15 1
    25   14   28 1
    26   14   29 1
    27   15   16 1
    28   15   30 1
    29   15   31 1
    30   16   17 2
    31   16   34 1
    32   18   19 2
    33   18   35 1
    34   20   32 1
    35   20   33 1
@<TRIPOS>MOLECULE
ZINC37420360
   28    29     0     0     0
SMALL
USER_CHARGES

@<TRIPOS>ATOM
      1 C1         -0.0169    1.3955    0.0097 C.ar      1 <0>        -0.0419
      2 C2          1.1575    2.0927    0.0022 C.ar      1 <0>        -0.2031
      3 C3          2.3730    1.4128   -0.0130 C.ar      1 <0>         0.2762
      4 C4          2.3959    0.0201   -0.0212 C.ar      1 <0>        -0.2826
      5 C5          1.2255   -0.6839   -0.0142 C.ar      1 <0>        -0.0290
      6 C6          0.0021   -0.0041    0.0020 C.ar      1 <0>        -0.2417
      7 C7         -1.2609   -0.7588    0.0105 C.2       1 <0>         0.5324
      8 O1         -2.3295   -0.1631    0.0243 O.co2     1 <0>        -0.7147
      9 O2         -1.2426   -1.9822    0.0038 O.co2     1 <0>        -0.7139
     10 N1          3.5654    2.1253   -0.0206 N.2       1 <0>        -1.0873
     11 S1          5.0117    1.3190   -0.0387 S.o2      1 <0>         2.6149
     12 O3          5.1101    0.6334    1.2021 O.2       1 <0>        -1.0066
     13 O4          5.0863    0.6468   -1.2885 O.2       1 <0>        -1.0367
     14 C8          6.2864    2.5355   -0.0443 C.2       1 <0>        -0.7666
     15 C9          6.9748    2.7998   -1.1754 C.2       1 <0>         0.2645
     16 N2          7.9616    3.7477   -1.1622 N.am      1 <0>        -0.6374
     17 H1          8.4562    3.9376   -1.9748 H         1 <0>         0.4354
     18 C10         8.2520    4.4189   -0.0330 C.2       1 <0>         0.7056
     19 O5          9.1324    5.2574   -0.0437 O.2       1 <0>        -0.5553
     20 N3          7.5812    4.1757    1.1084 N.am      1 <0>        -0.6582
     21 H2          7.8029    4.6692    1.9135 H         1 <0>         0.4282
     22 C11         6.5985    3.2529    1.1356 C.2       1 <0>         0.5807
     23 O6          5.9876    3.0359    2.1665 O.2       1 <0>        -0.4656
     24 H3         -0.9590    1.9234    0.0261 H         1 <0>         0.1077
     25 H4          1.1437    3.1726    0.0078 H         1 <0>         0.1019
     26 H5          3.3403   -0.5037   -0.0334 H         1 <0>         0.0878
     27 H6          1.2441   -1.7637   -0.0213 H         1 <0>         0.1049
     28 H7          6.7479    2.2654   -2.0861 H         1 <0>         0.2003
@<TRIPOS>BOND
     1    1    6 ar
     2    1    2 ar
     3    1   24 1
     4    2    3 ar
     5    2   25 1
     6    3    4 ar
     7    3   10 1
     8    4    5 ar
     9    4   26 1
    10    5    6 ar
    11    5   27 1
    12    6    7 1
    13    7    8 2
    14    7    9 1
    15   10   11 1
    16   11   12 2
    17   11   13 2
    18   11   14 1
    19   14   22 1
    20   14   15 2
    21   15   16 1
    22   15   28 1
    23   16   17 1
    24   16   18 am
    25   18   19 2
    26   18   20 am
    27   20   21 1
    28   20   22 am
    29   22   23 2
@<TRIPOS>MOLECULE
ZINC40533008
   34    34     0     0     0
SMALL
USER_CHARGES

@<TRIPOS>ATOM
      1 C1         -0.0188    1.5335    0.0105 C.3       1 <0>        -0.1379
      2 C2          1.4526    2.0379   -0.0009 C.3       1 <0>        -0.5706
      3 S1          2.2278    0.8424    1.1674 S.o2      1 <0>         2.3685
      4 O1          2.1984    1.3913    2.4777 O.2       1 <0>        -0.9426
      5 O2          3.4629    0.3986    0.6227 O.2       1 <0>        -0.9439
      6 C3          1.0012   -0.5241    1.0635 C.3       1 <0>        -0.5862
      7 C4          0.0021   -0.0041    0.0020 C.3       1 <0>         0.1678
      8 H1          0.3055   -0.3564   -0.9838 H         1 <0>         0.1096
      9 N1         -1.3385   -0.5103    0.3067 N.am      1 <0>        -0.7451
     10 C5         -1.7090   -1.7347   -0.1177 C.2       1 <0>         0.7094
     11 O3         -0.9306   -2.4191   -0.7534 O.2       1 <0>        -0.5969
     12 N2         -2.9422   -2.2005    0.1626 N.am      1 <0>        -0.6977
     13 C6         -3.3449   -3.5314   -0.2987 C.3       1 <0>         0.0906
     14 H2         -2.4863   -4.2021   -0.2671 H         1 <0>         0.0763
     15 C7         -4.4494   -4.0737    0.6106 C.3       1 <0>        -0.0803
     16 C8         -3.8920   -4.2852    2.0197 C.3       1 <0>        -0.1764
     17 C9         -4.9799   -4.8194    2.9153 C.2       1 <0>         0.4902
     18 O4         -6.0975   -5.0131    2.4681 O.co2     1 <0>        -0.6972
     19 O5         -4.7424   -5.0580    4.0871 O.co2     1 <0>        -0.7205
     20 C10        -3.8584   -3.4389   -1.7125 C.2       1 <0>         0.4945
     21 O6         -3.8855   -2.3612   -2.2820 O.co2     1 <0>        -0.6992
     22 O7         -4.2468   -4.4418   -2.2868 O.co2     1 <0>        -0.7013
     23 H3         -0.5232    1.8899    0.9086 H         1 <0>         0.0928
     24 H4         -0.5402    1.8994   -0.8740 H         1 <0>         0.1078
     25 H5          1.8896    1.9563   -0.9961 H         1 <0>         0.1402
     26 H6          1.5223    3.0584    0.3755 H         1 <0>         0.1398
     27 H7          1.4768   -1.4457    0.7279 H         1 <0>         0.1478
     28 H8          0.5045   -0.6713    2.0225 H         1 <0>         0.1435
     29 H9         -1.9595    0.0356    0.8138 H         1 <0>         0.3944
     30 H10        -3.5632   -1.6545    0.6697 H         1 <0>         0.3872
     31 H11        -5.2720   -3.3596    0.6487 H         1 <0>         0.0548
     32 H12        -4.8108   -5.0236    0.2165 H         1 <0>         0.0792
     33 H13        -3.0694   -4.9994    1.9816 H         1 <0>         0.0517
     34 H14        -3.5306   -3.3354    2.4138 H         1 <0>         0.0497
@<TRIPOS>BOND
     1    1    7 1
     2    1    2 1
     3    1   23 1
     4    1   24 1
     5    2    3 1
     6    2   25 1
     7    2   26 1
     8    3    4 2
     9    3    5 2
    10    3    6 1
    11    6    7 1
    12    6   27 1
    13    6   28 1
    14    7    8 1
    15    7    9 1
    16    9   10 am
    17    9   29 1
    18   10   11 2
    19   10   12 am
    20   12   13 1
    21   12   30 1
    22   13   14 1
    23   13   15 1
    24   13   20 1
    25   15   16 1
    26   15   31 1
    27   15   32 1
    28   16   17 1
    29   16   33 1
    30   16   34 1
    31   17   18 2
    32   17   19 1
    33   20   21 2
    34   20   22 1
@<TRIPOS>MOLECULE
ZINC50930862
   36    37     0     0     0
SMALL
USER_CHARGES

@<TRIPOS>ATOM
      1 C1         -0.2797    1.4362   -0.1272 C.3       1 <0>        -0.1156
      2 C2          1.0800    2.1022    0.0961 C.3       1 <0>        -0.1327
      3 C3          2.0195    1.7349   -1.0568 C.3       1 <0>         0.1129
      4 N1          2.0762    0.2713   -1.1727 N.am      1 <0>        -0.6293
      5 C4          0.8179   -0.4765   -1.3004 C.3       1 <0>         0.1628
      6 H1          0.3417   -0.2311   -2.2496 H         1 <0>         0.0584
      7 C5         -0.1081   -0.0845   -0.1447 C.3       1 <0>        -0.1324
      8 C6          1.1058   -1.9781   -1.2441 C.3       1 <0>        -0.0773
      9 C7         -0.2016   -2.7547   -1.4131 C.3       1 <0>        -0.1888
     10 C8          0.0657   -4.2292   -1.2531 C.2       1 <0>         0.4887
     11 O1          1.1970   -4.6224   -1.0249 O.co2     1 <0>        -0.6858
     12 O2         -0.8494   -5.0288   -1.3517 O.co2     1 <0>        -0.7230
     13 C9          3.2599   -0.3729   -1.1626 C.2       1 <0>         0.6958
     14 O3          3.2905   -1.5884   -1.1599 O.2       1 <0>        -0.5568
     15 N2          4.4098    0.3301   -1.1554 N.am      1 <0>        -0.7379
     16 C10         5.6932   -0.3660   -1.0357 C.3       1 <0>         0.2562
     17 C11         6.8144    0.6409   -1.0529 C.2       1 <0>         0.0398
     18 N3          7.4537    1.0932   -2.1218 N.2       1 <0>        -0.3736
     19 N4          8.3399    1.9379   -1.7174 N.2       1 <0>        -0.2008
     20 N5          8.2773    2.0296   -0.4346 N.2       1 <0>        -0.2009
     21 N6          7.3467    1.2487   -0.0027 N.2       1 <0>        -0.3743
     22 H2         -0.9578    1.7158    0.6791 H         1 <0>         0.0579
     23 H3         -0.6935    1.7659   -1.0802 H         1 <0>         0.0591
     24 H4          0.9536    3.1842    0.1319 H         1 <0>         0.0668
     25 H5          1.5055    1.7538    1.0373 H         1 <0>         0.0667
     26 H6          1.6412    2.1607   -1.9862 H         1 <0>         0.0607
     27 H7          3.0170    2.1243   -0.8534 H         1 <0>         0.0755
     28 H8          0.3286   -0.4122    0.7987 H         1 <0>         0.0661
     29 H9         -1.0801   -0.5587   -0.2804 H         1 <0>         0.0749
     30 H10         1.7940   -2.2464   -2.0457 H         1 <0>         0.0849
     31 H11         1.5541   -2.2263   -0.2821 H         1 <0>         0.0738
     32 H12        -0.9169   -2.4309   -0.6571 H         1 <0>         0.0502
     33 H13        -0.6110   -2.5653   -2.4054 H         1 <0>         0.0468
     34 H14         4.3875    1.2970   -1.2295 H         1 <0>         0.3888
     35 H15         5.7189   -0.9223   -0.0986 H         1 <0>         0.0703
     36 H16         5.8117   -1.0560   -1.8711 H         1 <0>         0.0722
@<TRIPOS>BOND
     1    1    7 1
     2    1    2 1
     3    1   22 1
     4    1   23 1
     5    2    3 1
     6    2   24 1
     7    2   25 1
     8    3    4 1
     9    3   26 1
    10    3   27 1
    11    4    5 1
    12    4   13 am
    13    5    6 1
    14    5    7 1
    15    5    8 1
    16    7   28 1
    17    7   29 1
    18    8    9 1
    19    8   30 1
    20    8   31 1
    21    9   10 1
    22    9   32 1
    23    9   33 1
    24   10   11 2
    25   10   12 1
    26   13   14 2
    27   13   15 am
    28   15   16 1
    29   15   34 1
    30   16   17 1
    31   16   35 1
    32   16   36 1
    33   17   21 2
    34   17   18 1
    35   18   19 1
    36   19   20 2
    37   20   21 1
@<TRIPOS>MOLECULE
ZINC62847350
   36    37     0     0     0
SMALL
USER_CHARGES

@<TRIPOS>ATOM
      1 C1         -0.0243    1.5259    0.0080 C.3       1 <0>        -0.1580
      2 C2         -0.0027   -0.0039   -0.0001 C.3       1 <0>        -0.0878
      3 C3         -1.4378   -0.5343    0.0122 C.3       1 <0>        -0.1236
      4 C4         -2.1535   -0.0394    1.2711 C.3       1 <0>        -0.1066
      5 C5         -1.3898   -0.5185    2.5096 C.3       1 <0>         0.1331
      6 N1         -1.2379   -1.9781    2.4362 N.am      1 <0>        -0.6231
      7 C6         -0.6437   -2.5667    1.2282 C.3       1 <0>         0.1131
      8 C7         -1.4158   -2.0646    0.0041 C.3       1 <0>        -0.1064
      9 C8         -1.6357   -2.7621    3.4578 C.2       1 <0>         0.7101
     10 O1         -2.0404   -2.2592    4.4882 O.2       1 <0>        -0.6072
     11 N2         -1.5848   -4.1035    3.3372 N.am      1 <0>        -0.7345
     12 C9         -2.1199   -4.9554    4.4021 C.3       1 <0>         0.2585
     13 C10        -1.9418   -6.4034    4.0242 C.2       1 <0>         0.0353
     14 N3         -2.7986   -7.1544    3.3476 N.2       1 <0>        -0.3707
     15 N4         -2.2793   -8.3288    3.2304 N.2       1 <0>        -0.1979
     16 N5         -1.1292   -8.3384    3.8092 N.2       1 <0>        -0.1996
     17 N6         -0.8959   -7.1690    4.2995 N.2       1 <0>        -0.3745
     18 C11        -2.1676   -0.0362   -1.2086 C.2       1 <0>         0.5060
     19 O2         -1.5931    0.6768   -2.0136 O.co2     1 <0>        -0.6949
     20 O3         -3.3325   -0.3463   -1.3912 O.co2     1 <0>        -0.6978
     21 H1          0.9980    1.9038   -0.0008 H         1 <0>         0.0276
     22 H2         -0.5525    1.8865   -0.8747 H         1 <0>         0.0936
     23 H3         -0.5339    1.8773    0.9051 H         1 <0>         0.0368
     24 H4          0.5069   -0.3553   -0.8973 H         1 <0>         0.0523
     25 H5          0.5255   -0.3645    0.8825 H         1 <0>         0.0403
     26 H6         -2.1894    1.0500    1.2647 H         1 <0>         0.0654
     27 H7         -3.1681   -0.4371    1.2929 H         1 <0>         0.0656
     28 H8         -0.4061   -0.0497    2.5364 H         1 <0>         0.0592
     29 H9         -1.9475   -0.2539    3.4079 H         1 <0>         0.0835
     30 H10         0.4008   -2.2648    1.1505 H         1 <0>         0.0654
     31 H11        -0.7092   -3.6534    1.2811 H         1 <0>         0.0697
     32 H12        -2.4374   -2.4432    0.0378 H         1 <0>         0.0693
     33 H13        -0.9266   -2.4166   -0.9041 H         1 <0>         0.0628
     34 H14        -1.1940   -4.5047    2.5453 H         1 <0>         0.3959
     35 H15        -1.5864   -4.7542    5.3310 H         1 <0>         0.0698
     36 H16        -3.1803   -4.7434    4.5388 H         1 <0>         0.0692
@<TRIPOS>BOND
     1    1    2 1
     2    1   21 1
     3    1   22 1
     4    1   23 1
     5    2    3 1
     6    2   24 1
     7    2   25 1
     8    3    8 1
     9    3    4 1
    10    3   18 1
    11    4    5 1
    12    4   26 1
    13    4   27 1
    14    5    6 1
    15    5   28 1
    16    5   29 1
    17    6    7 1
    18    6    9 am
    19    7    8 1
    20    7   30 1
    21    7   31 1
    22    8   32 1
    23    8   33 1
    24    9   10 2
    25    9   11 am
    26   11   12 1
    27   11   34 1
    28   12   13 1
    29   12   35 1
    30   12   36 1
    31   13   17 2
    32   13   14 1
    33   14   15 1
    34   15   16 2
    35   16   17 1
    36   18   19 2
    37   18   20 1
@<TRIPOS>MOLECULE
ZINC19428936
   29    28     0     0     0
SMALL
USER_CHARGES
(2R)-4-amino-2-[[(2E,4E)-hexa-2,4-dienoyl]amino]-4-oxo-butanoic acid
@<TRIPOS>ATOM
      1 C1          8.8506    5.1694   -3.5348 C.3       1 <0>        -0.1268
      2 C2          7.4114    4.7225   -3.5234 C.2       1 <0>        -0.1453
      3 C3          6.7555    4.6147   -2.3668 C.2       1 <0>        -0.1381
      4 C4          5.3580    4.1807   -2.3557 C.2       1 <0>        -0.0657
      5 C5          4.6934    4.0714   -1.1837 C.2       1 <0>        -0.1806
      6 C6          3.2966    3.6377   -1.1727 C.2       1 <0>         0.5505
      7 O1          2.7327    3.3751   -2.2189 O.2       1 <0>        -0.5572
      8 N1          2.6340    3.5287   -0.0041 N.am      1 <0>        -0.6943
      9 C7          1.2350    3.0943    0.0069 C.3       1 <0>         0.1217
     10 H1          0.7578    3.4904   -0.9016 H         1 <0>         0.0949
     11 C8          0.5460    3.6251    1.2656 C.3       1 <0>        -0.1315
     12 C9          0.4956    5.1304    1.2138 C.2       1 <0>         0.5144
     13 O2          0.9646    5.7205    0.2637 O.2       1 <0>        -0.5406
     14 N2         -0.0706    5.8208    2.2234 N.am      1 <0>        -0.8852
     15 C10         1.1765    1.5884   -0.0006 C.2       1 <0>         0.4585
     16 O3          2.1986    0.9442   -0.0139 O.co2     1 <0>        -0.6243
     17 O4         -0.0110    0.9628    0.0073 O.co2     1 <0>        -0.7683
     18 H2          9.2176    5.1973   -4.5714 H         1 <0>         0.0617
     19 H3          9.4583    4.4636   -2.9495 H         1 <0>         0.0671
     20 H4          8.9263    6.1734   -3.0919 H         1 <0>         0.0665
     21 H5          6.9018    4.4852   -4.4689 H         1 <0>         0.1154
     22 H6          7.2651    4.8520   -1.4213 H         1 <0>         0.1167
     23 H7          4.8483    3.9434   -3.3012 H         1 <0>         0.1302
     24 H8          5.2031    4.3086   -0.2382 H         1 <0>         0.1227
     25 H9          3.1437    3.7659    0.9414 H         1 <0>         0.4028
     26 H10        -0.4775    3.2256    1.3195 H         1 <0>         0.1153
     27 H11         1.1109    3.3075    2.1545 H         1 <0>         0.0917
     28 H12        -0.1074    6.9195    2.1856 H         1 <0>         0.4112
     29 H13        -0.4959    5.2855    3.0852 H         1 <0>         0.4168
@<TRIPOS>BOND
     1    1    2 1
     2    1   18 1
     3    1   19 1
     4    1   20 1
     5    2    3 2
     6    2   21 1
     7    3    4 1
     8    3   22 1
     9    4    5 2
    10    4   23 1
    11    5    6 1
    12    5   24 1
    13    6    7 2
    14    6    8 am
    15    8    9 1
    16    8   25 1
    17    9   10 1
    18    9   11 1
    19    9   15 1
    20   11   12 1
    21   11   26 1
    22   11   27 1
    23   12   13 2
    24   12   14 am
    25   14   28 1
    26   14   29 1
    27   15   16 2
    28   15   17 1
@<TRIPOS>MOLECULE
ZINC36745529
   25    24     0     0     0
SMALL
USER_CHARGES

@<TRIPOS>ATOM
      1 C1         -0.0187    1.5258    0.0104 C.3       1 <0>        -0.1107
      2 C2          0.0021   -0.0041    0.0020 C.3       1 <0>        -0.1683
      3 C3         -1.4117   -0.5257    0.0127 C.2       1 <0>         0.4908
      4 O1         -2.3491    0.2539    0.0259 O.co2     1 <0>        -0.7027
      5 O2         -1.6182   -1.7273    0.0082 O.co2     1 <0>        -0.7015
      6 C4          1.3951    2.0474   -0.0003 C.2       1 <0>         0.5103
      7 O3          2.3275    1.2719   -0.0133 O.2       1 <0>        -0.5381
      8 N1          1.6234    3.3757    0.0047 N.am      1 <0>        -0.7354
      9 C5          2.9978    3.8828   -0.0057 C.3       1 <0>         0.1317
     10 C6          2.9771    5.4126    0.0027 C.3       1 <0>        -0.6423
     11 S1          4.6789    6.0405   -0.0102 S.o2      1 <0>         2.6266
     12 O4          5.3247    5.7292    1.2167 O.2       1 <0>        -0.9571
     13 O5          5.3012    5.7424   -1.2524 O.2       1 <0>        -0.9571
     14 N2          4.5243    7.6892    0.0002 N.pl3     1 <0>        -1.2506
     15 H1         -0.5459    1.8868   -0.8726 H         1 <0>         0.0932
     16 H2         -0.5289    1.8773    0.9072 H         1 <0>         0.0932
     17 H3          0.5123   -0.3556   -0.8948 H         1 <0>         0.0643
     18 H4          0.5293   -0.3651    0.8851 H         1 <0>         0.0643
     19 H5          0.8777    3.9959    0.0151 H         1 <0>         0.4038
     20 H6          3.5250    3.5217    0.8773 H         1 <0>         0.0825
     21 H7          3.5080    3.5312   -0.9025 H         1 <0>         0.0825
     22 H8          2.4499    5.7737   -0.8804 H         1 <0>         0.1430
     23 H9          2.4669    5.7641    0.8995 H         1 <0>         0.1430
     24 H10         3.6427    8.0936    0.0107 H         1 <0>         0.4133
     25 H11         5.3153    8.2505   -0.0044 H         1 <0>         0.4211
@<TRIPOS>BOND
     1    1    2 1
     2    1    6 1
     3    1   15 1
     4    1   16 1
     5    2    3 1
     6    2   17 1
     7    2   18 1
     8    3    4 2
     9    3    5 1
    10    6    7 2
    11    6    8 am
    12    8    9 1
    13    8   19 1
    14    9   10 1
    15    9   20 1
    16    9   21 1
    17   10   11 1
    18   10   22 1
    19   10   23 1
    20   11   12 2
    21   11   13 2
    22   11   14 1
    23   14   24 1
    24   14   25 1
@<TRIPOS>MOLECULE
ZINC40579113
   32    31     0     0     0
SMALL
USER_CHARGES

@<TRIPOS>ATOM
      1 C1         -0.0187    1.5258    0.0104 C.3       1 <0>        -0.1609
      2 C2          0.0021   -0.0041    0.0020 C.3       1 <0>         0.1810
      3 H1          0.5123   -0.3556   -0.8948 H         1 <0>         0.0867
      4 C3         -1.4333   -0.5336    0.0129 C.3       1 <0>        -0.1970
      5 C4         -1.4159   -2.0348   -0.1192 C.2       1 <0>         0.4875
      6 O1         -0.3539   -2.6262   -0.2133 O.co2     1 <0>        -0.6850
      7 O2         -2.4639   -2.6578   -0.1319 O.co2     1 <0>        -0.7089
      8 N1          0.7106   -0.4894    1.1889 N.am      1 <0>        -0.7101
      9 C5          2.0538   -0.5998    1.1737 C.2       1 <0>         0.7146
     10 O3          2.6774   -0.2967    0.1749 O.2       1 <0>        -0.6003
     11 N2          2.7056   -1.0463    2.2656 N.am      1 <0>        -0.7509
     12 C6          4.1656   -1.1663    2.2490 C.3       1 <0>         0.1335
     13 C7          4.6495   -1.6916    3.6021 C.3       1 <0>         0.1057
     14 N3          6.1095   -1.8117    3.5856 N.am      1 <0>        -0.7260
     15 C8          6.7613   -2.2581    4.6775 C.2       1 <0>         0.5103
     16 O4          6.1393   -2.5605    5.6737 O.2       1 <0>        -0.5481
     17 C9          8.2632   -2.3816    4.6605 C.3       1 <0>        -0.1700
     18 H2          1.0039    1.9031    0.0027 H         1 <0>         0.0532
     19 H3         -0.5459    1.8868   -0.8726 H         1 <0>         0.0594
     20 H4         -0.5289    1.8773    0.9072 H         1 <0>         0.0484
     21 H5         -1.9156   -0.2570    0.9504 H         1 <0>         0.0605
     22 H6         -1.9862   -0.1019   -0.8214 H         1 <0>         0.0727
     23 H7          0.2131   -0.7312    1.9857 H         1 <0>         0.3900
     24 H8          2.2081   -1.2881    3.0624 H         1 <0>         0.3957
     25 H9          4.4643   -1.8592    1.4624 H         1 <0>         0.0704
     26 H10         4.6084   -0.1885    2.0594 H         1 <0>         0.0681
     27 H11         4.3508   -0.9988    4.3888 H         1 <0>         0.0738
     28 H12         4.2067   -2.6694    3.7917 H         1 <0>         0.0760
     29 H13         6.6070   -1.5698    2.7888 H         1 <0>         0.4042
     30 H14         8.6426   -2.0669    3.6883 H         1 <0>         0.0766
     31 H15         8.6886   -1.7483    5.4389 H         1 <0>         0.0942
     32 H16         8.5445   -3.4189    4.8418 H         1 <0>         0.0949
@<TRIPOS>BOND
     1    1    2 1
     2    1   18 1
     3    1   19 1
     4    1   20 1
     5    2    3 1
     6    2    4 1
     7    2    8 1
     8    4    5 1
     9    4   21 1
    10    4   22 1
    11    5    6 2
    12    5    7 1
    13    8    9 am
    14    8   23 1
    15    9   10 2
    16    9   11 am
    17   11   12 1
    18   11   24 1
    19   12   13 1
    20   12   25 1
    21   12   26 1
    22   13   14 1
    23   13   27 1
    24   13   28 1
    25   14   15 am
    26   14   29 1
    27   15   16 2
    28   15   17 1
    29   17   30 1
    30   17   31 1
    31   17   32 1
@<TRIPOS>MOLECULE
ZINC50305506
   23    24     0     0     0
SMALL
USER_CHARGES

@<TRIPOS>ATOM
      1 C1         -0.0184    1.5028    0.0103 C.3       1 <0>        -0.0727
      2 C2          0.0021   -0.0041    0.0020 C.2       1 <0>        -0.0771
      3 C3          0.0081   -0.8061   -1.0956 C.2       1 <0>         0.1680
      4 C4          0.0283   -2.1330   -0.5934 C.2       1 <0>        -0.0713
      5 N1          0.0331   -2.0486    0.7236 N.2       1 <0>        -0.2348
      6 N2          0.0239   -0.8175    1.0903 N.pl3     1 <0>        -0.3528
      7 H1          0.0294   -0.5126    2.0111 H         1 <0>         0.4511
      8 C5          0.0416   -3.3720   -1.3921 C.2       1 <0>         0.6121
      9 O1          0.0353   -3.3126   -2.6067 O.2       1 <0>        -0.4660
     10 N3          0.0606   -4.5706   -0.7761 N.am      1 <0>        -0.6019
     11 C6          0.0731   -5.7387   -1.5290 C.2       1 <0>         0.3031
     12 N4          0.0754   -5.9060   -2.8444 N.2       1 <0>        -0.2875
     13 N5          0.0880   -7.0528   -3.3692 N.2       1 <0>        -0.2533
     14 C7          0.0996   -8.1553   -2.6467 C.2       1 <0>         0.0431
     15 S1          0.0987   -7.4496   -1.0011 S.3       1 <0>        -0.0264
     16 N6         -0.0034   -0.4065   -2.4400 N.pl3     1 <0>        -0.8506
     17 H2          1.0042    1.8801    0.0026 H         1 <0>         0.0738
     18 H3         -0.5455    1.8639   -0.8728 H         1 <0>         0.0789
     19 H4         -0.5286    1.8543    0.9071 H         1 <0>         0.0714
     20 H5          0.0656   -4.6180    0.1927 H         1 <0>         0.4357
     21 H6          0.1104   -9.1893   -2.9584 H         1 <0>         0.2430
     22 H7         -0.0172    0.5369   -2.6655 H         1 <0>         0.4004
     23 H8          0.0025   -1.0734   -3.1443 H         1 <0>         0.4139
@<TRIPOS>BOND
     1    1    2 1
     2    1   17 1
     3    1   18 1
     4    1   19 1
     5    2    6 1
     6    2    3 2
     7    3    4 1
     8    3   16 1
     9    4    5 2
    10    4    8 1
    11    5    6 1
    12    6    7 1
    13    8    9 2
    14    8   10 am
    15   10   11 1
    16   10   20 1
    17   11   15 1
    18   11   12 2
    19   12   13 1
    20   13   14 2
    21   14   15 1
    22   14   21 1
    23   16   22 1
    24   16   23 1
@<TRIPOS>MOLECULE
ZINC63010803
   29    29     0     0     0
SMALL
USER_CHARGES

@<TRIPOS>ATOM
      1 C1         -0.0187    1.5258    0.0104 C.3       1 <0>        -0.1471
      2 C2          0.0021   -0.0041    0.0020 C.3       1 <0>        -0.1151
      3 C3          0.7421   -0.5109    1.2415 C.3       1 <0>         0.0744
      4 H1          1.7350   -0.0630    1.2804 H         1 <0>         0.0837
      5 C4          0.8700   -2.0108    1.1719 C.2       1 <0>         0.4900
      6 O1          1.6120   -2.5219    0.3505 O.co2     1 <0>        -0.6983
      7 O2          0.2314   -2.7133    1.9370 O.co2     1 <0>        -0.6875
      8 N1         -0.0083   -0.1401    2.4439 N.am      1 <0>        -0.6869
      9 C5          0.6303   -0.0111    3.6237 C.2       1 <0>         0.5597
     10 O3          1.8293   -0.2025    3.6902 O.2       1 <0>        -0.5479
     11 C6         -0.1253    0.3623    4.8345 C.ar      1 <0>        -0.1482
     12 C7         -1.5045    0.5771    4.7607 C.ar      1 <0>        -0.0429
     13 C8         -2.2076    0.9254    5.8916 C.ar      1 <0>        -0.1834
     14 C9         -1.5474    1.0643    7.1086 C.ar      1 <0>         0.2053
     15 C10        -0.1722    0.8515    7.1866 C.ar      1 <0>         0.0055
     16 C11         0.5358    0.4965    6.0591 C.ar      1 <0>        -0.0466
     17 F1          0.4660    0.9875    8.3696 F         1 <0>        -0.1440
     18 N2         -2.2617    1.4167    8.2501 N.pl3     1 <0>        -0.8687
     19 H2          1.0039    1.9031    0.0027 H         1 <0>         0.0520
     20 H3         -0.5459    1.8868   -0.8726 H         1 <0>         0.0487
     21 H4         -0.5289    1.8773    0.9072 H         1 <0>         0.0495
     22 H5         -1.0205   -0.3814    0.0098 H         1 <0>         0.0599
     23 H6          0.5123   -0.3556   -0.8948 H         1 <0>         0.0800
     24 H7         -0.9647    0.0126    2.3909 H         1 <0>         0.3888
     25 H8         -2.0182    0.4700    3.8167 H         1 <0>         0.1332
     26 H9         -3.2732    1.0916    5.8342 H         1 <0>         0.1343
     27 H10         1.6007    0.3269    6.1202 H         1 <0>         0.1474
     28 H11        -3.2188    1.5652    8.1968 H         1 <0>         0.4025
     29 H12        -1.8024    1.5137    9.0990 H         1 <0>         0.4020
@<TRIPOS>BOND
     1    1    2 1
     2    1   19 1
     3    1   20 1
     4    1   21 1
     5    2    3 1
     6    2   22 1
     7    2   23 1
     8    3    4 1
     9    3    5 1
    10    3    8 1
    11    5    6 2
    12    5    7 1
    13    8    9 am
    14    8   24 1
    15    9   10 2
    16    9   11 1
    17   11   16 ar
    18   11   12 ar
    19   12   13 ar
    20   12   25 1
    21   13   14 ar
    22   13   26 1
    23   14   15 ar
    24   14   18 1
    25   15   16 ar
    26   15   17 1
    27   16   27 1
    28   18   28 1
    29   18   29 1
@<TRIPOS>MOLECULE
ZINC13234540
   36    38     0     0     0
SMALL
USER_CHARGES
5-[[2-(1-cyclopropyltetrazol-5-yl)sulfanylacetyl]amino]benzene-1,3-dicarboxylic acid
@<TRIPOS>ATOM
      1 C1          0.0588    3.8128    0.0390 C.ar      1 <0>        -0.0328
      2 C2          0.2301    4.9762   -0.7090 C.ar      1 <0>        -0.1250
      3 C3          1.4686    5.6211   -0.7202 C.ar      1 <0>        -0.1001
      4 C4          2.5276    5.1051    0.0121 C.ar      1 <0>         0.0825
      5 C5          2.3593    3.9504    0.7619 C.ar      1 <0>        -0.0764
      6 C6          1.1251    3.2972    0.7736 C.ar      1 <0>        -0.1256
      7 C7          0.9482    2.0644    1.5685 C.2       1 <0>         0.4974
      8 O1          1.8781    1.6157    2.2085 O.co2     1 <0>        -0.6418
      9 N1          3.7677    5.7546   -0.0011 N.am      1 <0>        -0.6495
     10 C8          4.9052    5.0370    0.0859 C.2       1 <0>         0.5198
     11 O2          4.8596    3.8250    0.0792 O.2       1 <0>        -0.5005
     12 C9          6.2337    5.7405    0.1916 C.3       1 <0>        -0.1515
     13 S1          7.5601    4.5130    0.2920 S.3       1 <0>         0.1310
     14 C10         8.9573    5.5808    0.4040 C.2       1 <0>         0.2057
     15 N2          8.9380    6.8961    0.4002 N.2       1 <0>        -0.3382
     16 N3         10.1300    7.3635    0.5003 N.2       1 <0>        -0.0334
     17 N4         10.9849    6.4009    0.5646 N.2       1 <0>        -0.0915
     18 N5         10.2533    5.2020    0.5043 N.pl3     1 <0>        -0.3371
     19 C11        10.7803    3.8355    0.5412 C.3       1 <0>         0.0584
     20 C12        12.2655    3.6597    0.8640 C.3       1 <0>        -0.1556
     21 C13        11.7587    3.4257   -0.5614 C.3       1 <0>        -0.1643
     22 C14        -0.8976    5.5268   -1.4890 C.2       1 <0>         0.4981
     23 O3         -0.7475    6.5408   -2.1407 O.co2     1 <0>        -0.6467
     24 H1         -0.8981    3.3121    0.0497 H         1 <0>         0.1414
     25 H2          1.6020    6.5228   -1.2993 H         1 <0>         0.1232
     26 H3          3.1849    3.5538    1.3341 H         1 <0>         0.1327
     27 H4          3.8083    6.7211   -0.0728 H         1 <0>         0.4070
     28 H5          6.3841    6.3668   -0.6877 H         1 <0>         0.1314
     29 H6          6.2454    6.3622    1.0868 H         1 <0>         0.1323
     30 H7         10.0916    3.0758    0.9108 H         1 <0>         0.1601
     31 H8         12.8505    4.5606    1.0489 H         1 <0>         0.1133
     32 H9         12.5539    2.7841    1.4456 H         1 <0>         0.1176
     33 H10        11.7139    2.3963   -0.9169 H         1 <0>         0.1198
     34 H11        12.0100    4.1726   -1.3144 H         1 <0>         0.1053
     35 O4         -0.2442    1.4380    1.5837 O.co2     1 <0>        -0.7549
     36 O5         -2.0921    4.9043   -1.4773 O.co2     1 <0>        -0.7521
@<TRIPOS>BOND
     1    1    6 ar
     2    1    2 ar
     3    1   24 1
     4    2    3 ar
     5    2   22 1
     6    3    4 ar
     7    3   25 1
     8    4    5 ar
     9    4    9 1
    10    5    6 ar
    11    5   26 1
    12    6    7 1
    13    7    8 2
    14    7   35 1
    15    9   10 am
    16    9   27 1
    17   10   11 2
    18   10   12 1
    19   12   13 1
    20   12   28 1
    21   12   29 1
    22   13   14 1
    23   14   18 1
    24   14   15 2
    25   15   16 1
    26   16   17 2
    27   17   18 1
    28   18   19 1
    29   19   21 1
    30   19   20 1
    31   19   30 1
    32   20   21 1
    33   20   31 1
    34   20   32 1
    35   21   33 1
    36   21   34 1
    37   22   23 2
    38   22   36 1
@<TRIPOS>MOLECULE
ZINC16806858
   35    36     0     0     0
SMALL
USER_CHARGES
3-[3-[2-[(4-fluorophenyl)amino]-2-oxo-ethyl]sulfanyl-5-oxo-4H-1,2,4-triazin-6-yl]propanoic acid
@<TRIPOS>ATOM
      1 C1         -0.0526    2.0860    4.7228 C.ar      1 <0>        -0.1206
      2 C2         -0.6378    2.6203    5.8541 C.ar      1 <0>        -0.1348
      3 C3         -2.0041    2.8425    5.8888 C.ar      1 <0>         0.0706
      4 C4         -2.7857    2.5350    4.7879 C.ar      1 <0>        -0.1331
      5 C5         -2.2036    2.0059    3.6526 C.ar      1 <0>        -0.0974
      6 C6         -0.8337    1.7823    3.6158 C.ar      1 <0>         0.1531
      7 N1         -0.2416    1.2460    2.4658 N.am      1 <0>        -0.6865
      8 C7         -0.7170    1.5732    1.2478 C.2       1 <0>         0.5388
      9 O1         -1.7087    2.2646    1.1496 O.2       1 <0>        -0.5095
     10 C8         -0.0164    1.0801    0.0081 C.3       1 <0>        -0.1449
     11 S1         -0.8890    1.6835   -1.4584 S.3       1 <0>         0.0257
     12 C9          0.1149    0.9787   -2.7234 C.ar      1 <0>         0.2495
     13 N2         -0.1971    1.1916   -4.0332 N.ar      1 <0>        -0.6267
     14 C10         0.5910    0.6385   -4.9836 C.ar      1 <0>         0.4702
     15 O2          0.3522    0.8013   -6.1684 O.3       1 <0>        -0.5908
     16 C11         1.6977   -0.1319   -4.5659 C.ar      1 <0>        -0.0800
     17 N3          1.9275   -0.2877   -3.2832 N.ar      1 <0>        -0.2004
     18 N4          1.1698    0.2507   -2.3962 N.ar      1 <0>        -0.4251
     19 C12         2.6075   -0.7696   -5.5841 C.3       1 <0>        -0.0135
     20 C13         3.7164   -1.5406   -4.8651 C.3       1 <0>        -0.1372
     21 C14         4.6262   -2.1783   -5.8833 C.2       1 <0>         0.4599
     22 O3          4.4099   -2.0312   -7.0629 O.co2     1 <0>        -0.6455
     23 O4          5.6769   -2.9097   -5.4797 O.co2     1 <0>        -0.7918
     24 F1         -2.5754    3.3604    6.9981 F         1 <0>        -0.1454
     25 H1          1.0124    1.9087    4.6977 H         1 <0>         0.1372
     26 H2         -0.0299    2.8612    6.7136 H         1 <0>         0.1359
     27 H3         -3.8512    2.7093    4.8168 H         1 <0>         0.1362
     28 H4         -2.8135    1.7665    2.7941 H         1 <0>         0.1512
     29 H5          0.6116    0.5576    2.5564 H         1 <0>         0.4424
     30 H6          1.0183    1.4534   -0.0014 H         1 <0>         0.1262
     31 H7         -0.0093   -0.0199    0.0039 H         1 <0>         0.1260
     32 H8          2.0272   -1.4619   -6.2118 H         1 <0>         0.0674
     33 H9          3.0546    0.0115   -6.2165 H         1 <0>         0.0676
     34 H10         4.2967   -0.8483   -4.2374 H         1 <0>         0.0628
     35 H11         3.2692   -2.3217   -4.2327 H         1 <0>         0.0628
@<TRIPOS>BOND
     1    1    6 ar
     2    1    2 ar
     3    1   25 1
     4    2    3 ar
     5    2   26 1
     6    3    4 ar
     7    3   24 1
     8    4    5 ar
     9    4   27 1
    10    5    6 ar
    11    5   28 1
    12    6    7 1
    13    7    8 am
    14    7   29 1
    15    8    9 2
    16    8   10 1
    17   10   11 1
    18   10   30 1
    19   10   31 1
    20   11   12 1
    21   12   18 ar
    22   12   13 ar
    23   13   14 ar
    24   14   15 1
    25   14   16 ar
    26   16   17 ar
    27   16   19 1
    28   17   18 ar
    29   19   20 1
    30   19   32 1
    31   19   33 1
    32   20   21 1
    33   20   34 1
    34   20   35 1
    35   21   22 2
    36   21   23 1
@<TRIPOS>MOLECULE
ZINC37582507
   30    31     0     0     0
SMALL
USER_CHARGES

@<TRIPOS>ATOM
      1 C1         -0.8296    3.2832    1.4823 C.2       1 <0>        -0.3845
      2 C2          0.1811    4.0805    0.9827 C.2       1 <0>         0.1936
      3 N1          0.0078    5.4075    0.9122 N.2       1 <0>        -0.5735
      4 C3         -1.1090    5.9732    1.3099 C.2       1 <0>         0.5995
      5 O1         -1.2373    7.3130    1.2197 O.3       1 <0>        -0.6357
      6 N2         -2.1376    5.2405    1.8095 N.am      1 <0>        -0.6608
      7 H1         -2.9523    5.6820    2.0962 H         1 <0>         0.3929
      8 C4         -2.0277    3.8988    1.9080 C.2       1 <0>         0.5419
      9 O2         -2.9449    3.2311    2.3550 O.2       1 <0>        -0.6101
     10 C5          1.4562    3.4694    0.5254 C.2       1 <0>         0.5738
     11 O3          1.6660    2.2883    0.7154 O.2       1 <0>        -0.5514
     12 N3          2.3797    4.2258   -0.1002 N.am      1 <0>        -0.5641
     13 C6          2.1617    5.6658   -0.2590 C.3       1 <0>         0.1326
     14 C7          2.5181    6.3824    1.0450 C.3       1 <0>        -0.1712
     15 C8          2.2939    7.8637    0.8816 C.2       1 <0>         0.5139
     16 O4          1.8867    8.3052   -0.1794 O.co2     1 <0>        -0.6969
     17 O5          2.5196    8.6205    1.8105 O.co2     1 <0>        -0.7248
     18 C9          3.6016    3.6081   -0.6214 C.3       1 <0>         0.0765
     19 C10         3.6107    2.0866   -0.7824 C.3       1 <0>        -0.1994
     20 C11         4.4201    2.7421    0.3383 C.3       1 <0>        -0.1916
     21 H2         -0.7085    2.2117    1.5420 H         1 <0>         0.1323
     22 H3          2.7924    6.0421   -1.0645 H         1 <0>         0.0550
     23 H4          1.1150    5.8503   -0.5006 H         1 <0>         0.1294
     24 H5          1.8875    6.0061    1.8505 H         1 <0>         0.0684
     25 H6          3.5648    6.1979    1.2866 H         1 <0>         0.0300
     26 H7          4.1477    4.1959   -1.3592 H         1 <0>         0.1242
     27 H8          2.7076    1.5453   -0.5006 H         1 <0>         0.1388
     28 H9          4.1628    1.6732   -1.6264 H         1 <0>         0.0794
     29 H10         5.5048    2.7599    0.2316 H         1 <0>         0.0873
     30 H11         4.0495    2.6320    1.3574 H         1 <0>         0.0946
@<TRIPOS>BOND
     1    1    8 1
     2    1    2 2
     3    1   21 1
     4    2    3 1
     5    2   10 1
     6    3    4 2
     7    4    5 1
     8    4    6 1
     9    6    7 1
    10    6    8 am
    11    8    9 2
    12   10   11 2
    13   10   12 am
    14   12   13 1
    15   12   18 1
    16   13   14 1
    17   13   22 1
    18   13   23 1
    19   14   15 1
    20   14   24 1
    21   14   25 1
    22   15   16 2
    23   15   17 1
    24   18   20 1
    25   18   19 1
    26   18   26 1
    27   19   20 1
    28   19   27 1
    29   19   28 1
    30   20   29 1
    31   20   30 1
@<TRIPOS>MOLECULE
ZINC13092939
   39    40     0     0     0
SMALL
USER_CHARGES

@<TRIPOS>ATOM
      1 C1         -0.0158    1.5198   -0.0042 C.3       1 <0>        -0.1417
      2 C2          0.0022   -0.0101   -0.0007 C.3       1 <0>        -0.1070
      3 H1          0.5113   -0.3695   -0.8951 H         1 <0>         0.1210
      4 C3          0.7310   -0.5011    1.2236 C.2       1 <0>         0.5436
      5 O1          0.1049   -0.8804    2.1906 O.2       1 <0>        -0.4960
      6 N1          2.0785   -0.5187    1.2440 N.am      1 <0>        -0.6722
      7 C4          2.7540   -0.8816    2.4098 C.ar      1 <0>         0.1893
      8 C5          2.2241   -1.8624    3.2419 C.ar      1 <0>        -0.1260
      9 C6          2.8877   -2.2227    4.3934 C.ar      1 <0>        -0.0469
     10 C7          4.0952   -1.6021    4.7255 C.ar      1 <0>        -0.0598
     11 C8          4.6248   -0.6174    3.8867 C.ar      1 <0>        -0.0488
     12 C9          3.9583   -0.2658    2.7342 C.ar      1 <0>        -0.1499
     13 C10         4.7880   -1.9739    5.9223 C.1       1 <0>         0.2635
     14 N2          5.3375   -2.2688    6.8718 N.1       1 <0>        -0.4319
     15 S1         -1.7007   -0.6349    0.0180 S.3       1 <0>         0.0231
     16 C11        -2.3654   -0.1071   -1.5260 C.ar      1 <0>         0.2524
     17 N3         -3.6209   -0.4063   -1.8367 N.ar      1 <0>        -0.5766
     18 C12        -4.1168   -0.0057   -3.0023 C.ar      1 <0>         0.4214
     19 O2         -5.3951   -0.2963   -3.3460 O.3       1 <0>        -0.6579
     20 C13        -3.2954    0.7205   -3.8656 C.ar      1 <0>        -0.0373
     21 N4         -2.0552    0.9879   -3.5021 N.ar      1 <0>        -0.2060
     22 N5         -1.6067    0.5899   -2.3633 N.ar      1 <0>        -0.4073
     23 C14        -3.8183    1.1935   -5.1976 C.3       1 <0>        -0.0108
     24 C15        -4.4397    2.5824   -5.0375 C.3       1 <0>        -0.1652
     25 C16        -4.9625    3.0554   -6.3694 C.2       1 <0>         0.4975
     26 O3         -4.8487    2.3472   -7.3553 O.co2     1 <0>        -0.7015
     27 O4         -5.4994    4.1462   -6.4610 O.co2     1 <0>        -0.7187
     28 H2          1.0074    1.8952   -0.0155 H         1 <0>         0.0592
     29 H3         -0.5429    1.8749   -0.8898 H         1 <0>         0.1017
     30 H4         -0.5249    1.8792    0.8901 H         1 <0>         0.0643
     31 H5          2.5787   -0.2790    0.4482 H         1 <0>         0.4183
     32 H6          1.2910   -2.3415    2.9847 H         1 <0>         0.1533
     33 H7          2.4754   -2.9838    5.0393 H         1 <0>         0.1354
     34 H8          5.5575   -0.1354    4.1403 H         1 <0>         0.1347
     35 H9          4.3691    0.4919    2.0833 H         1 <0>         0.1385
     36 H10        -2.9976    1.2429   -5.9132 H         1 <0>         0.0617
     37 H11        -4.5743    0.4966   -5.5593 H         1 <0>         0.0769
     38 H12        -5.2604    2.5330   -4.3218 H         1 <0>         0.0561
     39 H13        -3.6836    3.2792   -4.6757 H         1 <0>         0.0499
@<TRIPOS>BOND
     1    1    2 1
     2    1   28 1
     3    1   29 1
     4    1   30 1
     5    2    3 1
     6    2    4 1
     7    2   15 1
     8    4    5 2
     9    4    6 am
    10    6    7 1
    11    6   31 1
    12    7   12 ar
    13    7    8 ar
    14    8    9 ar
    15    8   32 1
    16    9   10 ar
    17    9   33 1
    18   10   11 ar
    19   10   13 1
    20   11   12 ar
    21   11   34 1
    22   12   35 1
    23   13   14 3
    24   15   16 1
    25   16   17 ar
    26   16   22 ar
    27   17   18 ar
    28   18   19 1
    29   18   20 ar
    30   20   21 ar
    31   20   23 1
    32   21   22 ar
    33   23   24 1
    34   23   36 1
    35   23   37 1
    36   24   25 1
    37   24   38 1
    38   24   39 1
    39   25   26 2
    40   25   27 1
@<TRIPOS>MOLECULE
ZINC63147831
   43    43     0     0     0
SMALL
USER_CHARGES

@<TRIPOS>ATOM
      1 C1         -0.0187    1.5258    0.0104 C.3       1 <0>        -0.1522
      2 C2          0.0021   -0.0041    0.0020 C.3       1 <0>        -0.0912
      3 C3         -1.4333   -0.5336    0.0129 C.3       1 <0>        -0.1113
      4 C4         -2.1494   -0.0402    1.2717 C.3       1 <0>        -0.1129
      5 C5         -1.4095   -0.5471    2.5112 C.3       1 <0>        -0.0966
      6 C6          0.0259   -0.0175    2.5003 C.3       1 <0>        -0.1188
      7 C7          0.7421   -0.5109    1.2415 C.3       1 <0>        -0.1136
      8 C8         -2.1256   -0.0536    3.7700 C.3       1 <0>         0.1481
      9 N1         -1.4888   -0.6357    4.9540 N.am      1 <0>        -0.7555
     10 C9         -1.9547   -0.3403    6.1837 C.2       1 <0>         0.7019
     11 O1         -2.9035    0.4094    6.3104 O.2       1 <0>        -0.6025
     12 N2         -1.3688   -0.8758    7.2729 N.am      1 <0>        -0.7020
     13 C10        -1.8753   -0.5546    8.6096 C.3       1 <0>         0.0931
     14 H1         -2.9587   -0.4423    8.5703 H         1 <0>         0.0745
     15 C11        -1.5143   -1.6839    9.5766 C.3       1 <0>        -0.0819
     16 C12        -2.2456   -2.9627    9.1632 C.3       1 <0>        -0.1752
     17 C13        -1.8901   -4.0750   10.1157 C.2       1 <0>         0.4906
     18 O2         -1.1229   -3.8645   11.0397 O.co2     1 <0>        -0.6980
     19 O3         -2.3696   -5.1854    9.9624 O.co2     1 <0>        -0.7208
     20 C14        -1.2537    0.7328    9.0863 C.2       1 <0>         0.4970
     21 O4         -1.8686    1.4620    9.8458 O.co2     1 <0>        -0.7046
     22 O5         -0.1361    1.0452    8.7125 O.co2     1 <0>        -0.7011
     23 H2          1.0039    1.9031    0.0027 H         1 <0>         0.0504
     24 H3         -0.5459    1.8868   -0.8726 H         1 <0>         0.0487
     25 H4         -0.5289    1.8773    0.9072 H         1 <0>         0.0654
     26 H5          0.5123   -0.3556   -0.8948 H         1 <0>         0.0629
     27 H6         -1.9605   -0.1726   -0.8702 H         1 <0>         0.0582
     28 H7         -1.4185   -1.6235    0.0069 H         1 <0>         0.0604
     29 H8         -2.1642    1.0497    1.2777 H         1 <0>         0.0676
     30 H9         -3.1720   -0.4175    1.2794 H         1 <0>         0.0633
     31 H10        -1.3947   -1.6369    2.5052 H         1 <0>         0.0747
     32 H11         0.0111    1.0724    2.5063 H         1 <0>         0.0676
     33 H12         0.5531   -0.3786    3.3834 H         1 <0>         0.0665
     34 H13         0.7568   -1.6008    1.2356 H         1 <0>         0.0604
     35 H14         1.7647   -0.1336    1.2338 H         1 <0>         0.0595
     36 H15        -2.0630    1.0334    3.8212 H         1 <0>         0.0587
     37 H16        -3.1722   -0.3560    3.7347 H         1 <0>         0.0583
     38 H17        -0.7318   -1.2338    4.8529 H         1 <0>         0.3896
     39 H18        -0.6118   -1.4738    7.1719 H         1 <0>         0.3873
     40 H19        -0.4383   -1.8557    9.5493 H         1 <0>         0.0592
     41 H20        -1.8122   -1.4057   10.5876 H         1 <0>         0.0714
     42 H21        -3.3216   -2.7909    9.1906 H         1 <0>         0.0519
     43 H22        -1.9477   -3.2409    8.1523 H         1 <0>         0.0510
@<TRIPOS>BOND
     1    1    2 1
     2    1   23 1
     3    1   24 1
     4    1   25 1
     5    2    7 1
     6    2    3 1
     7    2   26 1
     8    3    4 1
     9    3   27 1
    10    3   28 1
    11    4    5 1
    12    4   29 1
    13    4   30 1
    14    5    6 1
    15    5    8 1
    16    5   31 1
    17    6    7 1
    18    6   32 1
    19    6   33 1
    20    7   34 1
    21    7   35 1
    22    8    9 1
    23    8   36 1
    24    8   37 1
    25    9   10 am
    26    9   38 1
    27   10   11 2
    28   10   12 am
    29   12   13 1
    30   12   39 1
    31   13   14 1
    32   13   15 1
    33   13   20 1
    34   15   16 1
    35   15   40 1
    36   15   41 1
    37   16   17 1
    38   16   42 1
    39   16   43 1
    40   17   18 2
    41   17   19 1
    42   20   21 2
    43   20   22 1
@<TRIPOS>MOLECULE
ZINC16890098
   24    25     0     0     0
SMALL
USER_CHARGES
(1R,2R,3R,4S,5R,6S)-5-bromo-6-hydroxy-norbornane-2,3-dicarboxylic acid
@<TRIPOS>ATOM
      1 C1          0.6749    1.4951   -2.6054 C.3       1 <0>        -0.1326
      2 C2         -0.4911    1.2146   -1.5929 C.3       1 <0>        -0.0782
      3 H1         -1.3850    0.7466   -2.0053 H         1 <0>         0.0750
      4 C3         -0.6730    2.6297   -0.9637 C.3       1 <0>        -0.1051
      5 H2         -1.3331    3.2383   -1.5817 H         1 <0>         0.0364
      6 C4          0.7502    3.2326   -0.9396 C.3       1 <0>        -0.1053
      7 H3          0.7898    4.1376   -1.5458 H         1 <0>         0.0403
      8 C5          1.6580    2.1250   -1.5565 C.3       1 <0>        -0.0477
      9 H4          2.6274    2.4463   -1.9373 H         1 <0>         0.0789
     10 C6          1.6883    0.9995   -0.4778 C.3       1 <0>        -0.1702
     11 H5          2.4265    0.2416   -0.7401 H         1 <0>         0.0367
     12 C7          0.2651    0.3966   -0.5019 C.3       1 <0>         0.0708
     13 H6          0.3036   -0.6577   -0.7760 H         1 <0>         0.0018
     14 O1         -0.3654    0.5568    0.7705 O.3       1 <0>        -0.4411
     15 Br1         2.0829    1.7544    1.2941 Br        1 <0>         0.0133
     16 C8          1.1714    3.5286    0.4767 C.2       1 <0>         0.4513
     17 O2          0.3362    3.6717    1.3380 O.co2     1 <0>        -0.5231
     18 C9         -1.2192    2.5159    0.4362 C.2       1 <0>         0.4521
     19 O3         -0.4967    2.1682    1.3401 O.co2     1 <0>        -0.4386
     20 H7          0.3849    2.2105   -3.3749 H         1 <0>         0.0574
     21 H8          1.0715    0.5761   -3.0369 H         1 <0>         0.0465
     22 H9          0.0792    0.0899    1.4912 H         1 <0>         0.2986
     23 O4          2.4745    3.6332    0.7814 O.co2     1 <0>        -0.7754
     24 O5         -2.5082    2.8008    0.6790 O.co2     1 <0>        -0.8418
@<TRIPOS>BOND
     1    1    8 1
     2    1    2 1
     3    1   20 1
     4    1   21 1
     5    2    3 1
     6    2   12 1
     7    2    4 1
     8    4    5 1
     9    4    6 1
    10    4   18 1
    11    6    7 1
    12    6    8 1
    13    6   16 1
    14    8    9 1
    15    8   10 1
    16   10   11 1
    17   10   12 1
    18   10   15 1
    19   12   13 1
    20   12   14 1
    21   14   22 1
    22   16   17 2
    23   16   23 1
    24   18   19 2
    25   18   24 1
@<TRIPOS>MOLECULE
ZINC37584261
   35    35     0     0     0
SMALL
USER_CHARGES

@<TRIPOS>ATOM
      1 C1         -0.0184    1.5028    0.0103 C.3       1 <0>        -0.0840
      2 C2          0.0021   -0.0041    0.0020 C.2       1 <0>        -0.1308
      3 C3          0.0087   -0.8061   -1.0737 C.2       1 <0>        -0.0408
      4 O1          0.0277   -2.0854   -0.6682 O.3       1 <0>        -0.1783
      5 C4          0.0340   -2.1628    0.6660 C.2       1 <0>         0.0253
      6 C5          0.0253   -0.8955    1.1709 C.2       1 <0>        -0.2025
      7 C6          0.0342   -0.5023    2.5912 C.2       1 <0>         0.5868
      8 O2         -1.0152   -0.3538    3.1876 O.2       1 <0>        -0.5527
      9 N1          1.2053   -0.3072    3.2291 N.am      1 <0>        -0.6728
     10 C7          1.2142    0.0837    4.6410 C.3       1 <0>         0.0723
     11 H1          0.3837   -0.3984    5.1567 H         1 <0>         0.0766
     12 C8          2.5337   -0.3506    5.2821 C.3       1 <0>        -0.0801
     13 C9          2.6212   -1.8781    5.2845 C.3       1 <0>        -0.1770
     14 C10         3.9209   -2.3059    5.9160 C.2       1 <0>         0.4908
     15 O3          4.7046   -1.4668    6.3262 O.co2     1 <0>        -0.6969
     16 O4          4.1887   -3.4911    6.0168 O.co2     1 <0>        -0.7206
     17 C11         1.0719    1.5801    4.7488 C.2       1 <0>         0.4958
     18 O5          0.9722    2.2572    3.7398 O.co2     1 <0>        -0.6957
     19 O6          1.0563    2.1136    5.8450 O.co2     1 <0>        -0.7010
     20 C12         0.0538   -3.4340    1.4752 C.3       1 <0>        -0.0756
     21 C13        -0.0033   -0.3441   -2.5081 C.3       1 <0>        -0.0613
     22 H2          1.0042    1.8801    0.0026 H         1 <0>         0.0723
     23 H3         -0.5455    1.8639   -0.8728 H         1 <0>         0.0589
     24 H4         -0.5286    1.8543    0.9071 H         1 <0>         0.0787
     25 H5          2.0423   -0.4257    2.7534 H         1 <0>         0.3908
     26 H6          3.3671    0.0601    4.7122 H         1 <0>         0.0549
     27 H7          2.5781    0.0175    6.3071 H         1 <0>         0.0787
     28 H8          1.7878   -2.2888    5.8544 H         1 <0>         0.0520
     29 H9          2.5768   -2.2462    4.2595 H         1 <0>         0.0496
     30 H10         0.0626   -4.2923    0.8034 H         1 <0>         0.0754
     31 H11         0.9464   -3.4529    2.1005 H         1 <0>         0.0933
     32 H12        -0.8334   -3.4763    2.1070 H         1 <0>         0.0884
     33 H13         1.0214   -0.2188   -2.8580 H         1 <0>         0.0757
     34 H14        -0.5096   -1.0868   -3.1247 H         1 <0>         0.0693
     35 H15        -0.5304    0.6073   -2.5790 H         1 <0>         0.0845
@<TRIPOS>BOND
     1    1    2 1
     2    1   22 1
     3    1   23 1
     4    1   24 1
     5    2    6 1
     6    2    3 2
     7    3    4 1
     8    3   21 1
     9    4    5 1
    10    5    6 2
    11    5   20 1
    12    6    7 1
    13    7    8 2
    14    7    9 am
    15    9   10 1
    16    9   25 1
    17   10   11 1
    18   10   12 1
    19   10   17 1
    20   12   13 1
    21   12   26 1
    22   12   27 1
    23   13   14 1
    24   13   28 1
    25   13   29 1
    26   14   15 2
    27   14   16 1
    28   17   18 2
    29   17   19 1
    30   20   30 1
    31   20   31 1
    32   20   32 1
    33   21   33 1
    34   21   34 1
    35   21   35 1
@<TRIPOS>MOLECULE
ZINC38665372
   26    26     0     0     0
SMALL
USER_CHARGES

@<TRIPOS>ATOM
      1 C1         -0.0186    1.5240    0.0104 C.3       1 <0>        -0.2142
      2 C2          0.0021   -0.0041    0.0020 C.3       1 <0>         0.1669
      3 C3         -1.4121   -0.4729   -0.2987 C.3       1 <0>         0.0520
      4 H1         -2.0483    0.4044   -0.4255 H         1 <0>         0.0889
      5 C4         -1.9894   -1.3570    0.8075 C.3       1 <0>         0.0502
      6 O1         -2.9179   -0.6056    1.6448 O.3       1 <0>        -0.7282
      7 P1         -2.3148    0.2696    2.8425 P.3       1 <0>         2.2279
      8 O2         -3.1621    0.0711    4.1209 O.2       1 <0>        -1.0895
      9 O3         -0.8241   -0.2546    3.0923 O.3       1 <0>        -1.0835
     10 P2          0.6506    0.1790    2.6049 P.3       1 <0>         2.2374
     11 O4          1.7277   -0.4569    3.5337 O.2       1 <0>        -1.0738
     12 O5          0.6705   -0.5236    1.1199 O.3       1 <0>        -0.7158
     13 O6          0.8228    1.7120    2.5908 O.3       1 <0>        -1.0680
     14 O7         -2.2954    1.7652    2.4567 O.3       1 <0>        -1.0853
     15 O8         -1.3958   -1.2094   -1.5248 O.3       1 <0>        -0.5558
     16 C5          0.8388   -0.4044   -1.2355 C.3       1 <0>         0.0957
     17 O9          2.1575    0.1324   -1.1128 O.3       1 <0>        -0.5598
     18 H2          1.0039    1.9013    0.0027 H         1 <0>         0.0833
     19 H3         -0.5458    1.8851   -0.8726 H         1 <0>         0.0559
     20 H4         -0.5288    1.8755    0.9072 H         1 <0>         0.1154
     21 H5         -2.5239   -2.1954    0.3513 H         1 <0>         0.0887
     22 H6         -1.1827   -1.7550    1.4217 H         1 <0>         0.0776
     23 H7         -2.2616   -1.5468   -1.7924 H         1 <0>         0.3720
     24 H8          0.8936   -1.4911   -1.3009 H         1 <0>         0.0484
     25 H9          0.3680   -0.0095   -2.1357 H         1 <0>         0.0527
     26 H10         2.7392   -0.0797   -1.8556 H         1 <0>         0.3610
@<TRIPOS>BOND
     1    1    2 1
     2    1   18 1
     3    1   19 1
     4    1   20 1
     5    2   12 1
     6    2    3 1
     7    2   16 1
     8    3    4 1
     9    3    5 1
    10    3   15 1
    11    5    6 1
    12    5   21 1
    13    5   22 1
    14    6    7 1
    15    7    8 2
    16    7    9 1
    17    7   14 1
    18    9   10 1
    19   10   11 2
    20   10   12 1
    21   10   13 1
    22   15   23 1
    23   16   17 1
    24   16   24 1
    25   16   25 1
    26   17   26 1
@<TRIPOS>MOLECULE
ZINC44928480
   22    23     0     0     0
SMALL
USER_CHARGES

@<TRIPOS>ATOM
      1 C1         -0.0187    1.5258    0.0104 C.3       1 <0>        -0.1450
      2 C2          1.3165    0.7789   -0.0063 C.3       1 <0>        -0.1793
      3 H1          1.9064    0.7818    0.9103 H         1 <0>         0.1048
      4 C3          0.0021   -0.0041    0.0020 C.3       1 <0>        -0.1748
      5 H2         -0.2728   -0.5162    0.9241 H         1 <0>         0.0949
      6 C4         -0.4023   -0.6984   -1.2729 C.2       1 <0>         0.5287
      7 O1         -1.4525   -0.4067   -1.8192 O.co2     1 <0>        -0.7121
      8 O2          0.3206   -1.5520   -1.7579 O.co2     1 <0>        -0.6649
      9 C5          2.1080    0.7971   -1.2886 C.2       1 <0>         0.5230
     10 O3          1.6962    0.2053   -2.2639 O.2       1 <0>        -0.4831
     11 N1          3.2734    1.4711   -1.3517 N.am      1 <0>        -0.7272
     12 C6          4.0428    1.4888   -2.5983 C.3       1 <0>         0.2413
     13 C7          5.2945    2.3053   -2.4045 C.2       1 <0>         0.0441
     14 N2          5.4273    3.6081   -2.6071 N.2       1 <0>        -0.3758
     15 N3          6.6463    3.9234   -2.3297 N.2       1 <0>        -0.2031
     16 N4          7.2799    2.8647   -1.9613 N.2       1 <0>        -0.2032
     17 N5          6.4727    1.8598   -1.9931 N.2       1 <0>        -0.3755
     18 H3         -0.3072    2.0201    0.9381 H         1 <0>         0.0856
     19 H4         -0.3248    2.0300   -0.9061 H         1 <0>         0.0934
     20 H5          3.6028    1.9444   -0.5717 H         1 <0>         0.3914
     21 H6          4.3131    0.4692   -2.8730 H         1 <0>         0.0692
     22 H7          3.4397    1.9310   -3.3912 H         1 <0>         0.0676
@<TRIPOS>BOND
     1    1    4 1
     2    1    2 1
     3    1   18 1
     4    1   19 1
     5    2    3 1
     6    2    4 1
     7    2    9 1
     8    4    5 1
     9    4    6 1
    10    6    7 2
    11    6    8 1
    12    9   10 2
    13    9   11 am
    14   11   12 1
    15   11   20 1
    16   12   13 1
    17   12   21 1
    18   12   22 1
    19   13   17 2
    20   13   14 1
    21   14   15 1
    22   15   16 2
    23   16   17 1
@<TRIPOS>MOLECULE
ZINC62469517
   27    28     0     0     0
SMALL
USER_CHARGES

@<TRIPOS>ATOM
      1 C1         -0.0187    1.5258    0.0104 C.3       1 <0>        -0.1674
      2 C2          1.3165    0.7789   -0.0063 C.3       1 <0>        -0.1760
      3 C3          0.0021   -0.0041    0.0020 C.3       1 <0>        -0.0600
      4 C4         -0.4023   -0.6984   -1.2729 C.2       1 <0>         0.1235
      5 C5         -1.4844   -1.5721   -1.3216 C.2       1 <0>        -0.2631
      6 S1         -1.4461   -2.0457   -3.0431 S.3       1 <0>         0.2435
      7 C6         -0.1161   -1.1256   -3.5087 C.2       1 <0>         0.2069
      8 N1          0.2405   -0.5091   -2.3950 N.2       1 <0>        -0.5579
      9 N2          0.4625   -1.0327   -4.7592 N.am      1 <0>        -0.6063
     10 C7         -0.0444   -1.7371   -5.7904 C.2       1 <0>         0.5429
     11 O1         -1.0105   -2.4540   -5.6198 O.2       1 <0>        -0.5091
     12 C8          0.5748   -1.6376   -7.1285 C.2       1 <0>        -0.2049
     13 C9          0.0695   -2.3397   -8.1562 C.2       1 <0>        -0.0883
     14 C10         0.6871   -2.2405   -9.4909 C.2       1 <0>         0.5072
     15 O2          1.6594   -1.5190   -9.6626 O.co2     1 <0>        -0.6824
     16 O3          0.2272   -2.8796  -10.4265 O.co2     1 <0>        -0.6827
     17 C11        -2.3686   -1.9739   -0.2933 C.2       1 <0>         0.5623
     18 O4         -2.2299   -1.5321    0.8413 O.co2     1 <0>        -0.6749
     19 O5         -3.2733   -2.7637   -0.5369 O.co2     1 <0>        -0.6874
     20 H1         -0.3072    2.0201    0.9381 H         1 <0>         0.0903
     21 H2         -0.3248    2.0300   -0.9061 H         1 <0>         0.0858
     22 H3          1.8888    0.7918   -0.9339 H         1 <0>         0.0976
     23 H4          1.9064    0.7818    0.9103 H         1 <0>         0.0858
     24 H5         -0.2728   -0.5162    0.9241 H         1 <0>         0.1403
     25 H6          1.2338   -0.4604   -4.8954 H         1 <0>         0.4188
     26 H7          1.4335   -1.0004   -7.2801 H         1 <0>         0.1387
     27 H8         -0.7892   -2.9769   -8.0046 H         1 <0>         0.1169
@<TRIPOS>BOND
     1    1    3 1
     2    1    2 1
     3    1   20 1
     4    1   21 1
     5    2    3 1
     6    2   22 1
     7    2   23 1
     8    3    4 1
     9    3   24 1
    10    4    8 1
    11    4    5 2
    12    5    6 1
    13    5   17 1
    14    6    7 1
    15    7    8 2
    16    7    9 1
    17    9   10 am
    18    9   25 1
    19   10   11 2
    20   10   12 1
    21   12   13 2
    22   12   26 1
    23   13   14 1
    24   13   27 1
    25   14   15 2
    26   14   16 1
    27   17   18 2
    28   17   19 1
@<TRIPOS>MOLECULE
ZINC20244583
   30    30     0     0     0
SMALL
USER_CHARGES
(2R)-2-[(2,4-dioxo1H-pyrimidine-5-carbonyl)amino]-3-methyl-butanoic acid
@<TRIPOS>ATOM
      1 C1         -0.9262    3.2005    1.2635 C.3       1 <0>        -0.1585
      2 C2          0.5353    3.6533    1.2535 C.3       1 <0>        -0.0776
      3 C3          1.2423    3.1221    2.5020 C.3       1 <0>        -0.1454
      4 C4          1.2295    3.1083    0.0036 C.3       1 <0>         0.1029
      5 H1          0.7565    3.4945   -0.9113 H         1 <0>         0.0821
      6 C5          1.1701    1.6025    0.0122 C.2       1 <0>         0.4661
      7 O1          2.1919    0.9577    0.0106 O.co2     1 <0>        -0.6288
      8 O2         -0.0179    0.9777    0.0218 O.co2     1 <0>        -0.7604
      9 N1          2.6288    3.5419   -0.0060 N.am      1 <0>        -0.6975
     10 C6          3.2966    3.6377   -1.1727 C.2       1 <0>         0.5807
     11 O3          2.7682    3.2772   -2.2074 O.2       1 <0>        -0.5606
     12 C7          4.6643    4.1781   -1.1950 C.2       1 <0>        -0.2986
     13 C8          5.3235    4.3941   -2.3893 C.2       1 <0>         0.2330
     14 N2          6.5843    4.8993   -2.3713 N.am      1 <0>        -0.6439
     15 H2          7.1163    5.0842   -3.3162 H         1 <0>         0.4701
     16 C9          7.2094    5.1837   -1.2180 C.2       1 <0>         0.7011
     17 O4          8.3395    5.6300   -1.2561 O.2       1 <0>        -0.5501
     18 N3          6.6262    4.9915   -0.0226 N.am      1 <0>        -0.6678
     19 H3          7.1712    5.2365    0.9010 H         1 <0>         0.4619
     20 C10         5.3721    4.4983    0.0550 C.2       1 <0>         0.5652
     21 O5          4.8388    4.3221    1.1344 O.2       1 <0>        -0.4993
     22 H4         -1.4345    3.5824    0.3659 H         1 <0>         0.0431
     23 H5         -1.4253    3.5922    2.1621 H         1 <0>         0.0334
     24 H6         -0.9695    2.1014    1.2697 H         1 <0>         0.1112
     25 H7          0.5786    4.7524    1.2473 H         1 <0>         0.0555
     26 H8          2.2930    3.4476    2.4948 H         1 <0>         0.0486
     27 H9          1.1990    2.0230    2.5082 H         1 <0>         0.0647
     28 H10         0.7432    3.5138    3.4006 H         1 <0>         0.0489
     29 H11         3.1344    3.7893    0.9391 H         1 <0>         0.4244
     30 H12         4.8398    4.1680   -3.3281 H         1 <0>         0.1957
@<TRIPOS>BOND
     1    1    2 1
     2    1   22 1
     3    1   23 1
     4    1   24 1
     5    2    3 1
     6    2    4 1
     7    2   25 1
     8    3   26 1
     9    3   27 1
    10    3   28 1
    11    4    5 1
    12    4    6 1
    13    4    9 1
    14    6    7 2
    15    6    8 1
    16    9   10 am
    17    9   29 1
    18   10   11 2
    19   10   12 1
    20   12   20 1
    21   12   13 2
    22   13   14 1
    23   13   30 1
    24   14   15 1
    25   14   16 am
    26   16   17 2
    27   16   18 am
    28   18   19 1
    29   18   20 am
    30   20   21 2
@<TRIPOS>MOLECULE
ZINC37413407
   31    32     0     0     0
SMALL
USER_CHARGES

@<TRIPOS>ATOM
      1 C1         -0.0167    1.3784    0.0096 C.ar      1 <0>         0.0280
      2 C2          1.1641    2.0922    0.0022 C.ar      1 <0>        -0.1579
      3 C3          2.3859    1.4229   -0.0130 C.ar      1 <0>         0.1899
      4 C4          2.3915    0.0335   -0.0205 C.ar      1 <0>        -0.1587
      5 C5          1.2123   -0.6762   -0.0127 C.ar      1 <0>         0.0472
      6 C6          0.0021   -0.0041    0.0020 C.ar      1 <0>        -0.6838
      7 S1         -1.5103   -0.9080    0.0121 S.o2      1 <0>         2.7015
      8 O1         -1.2146   -2.1883    0.5532 O.2       1 <0>        -0.9695
      9 O2         -2.4923   -0.0504    0.5773 O.2       1 <0>        -0.9730
     10 N1         -1.9462   -1.1508   -1.5669 N.pl3     1 <0>        -1.0805
     11 C7         -1.1111   -1.9815   -2.4380 C.3       1 <0>         0.0726
     12 H1         -0.5418   -2.6858   -1.8315 H         1 <0>         0.0928
     13 C8         -2.0018   -2.7526   -3.4142 C.3       1 <0>         0.0912
     14 O3         -2.6600   -1.8324   -4.2871 O.3       1 <0>        -0.5509
     15 C9         -0.1619   -1.1025   -3.2110 C.2       1 <0>         0.4924
     16 O4          0.9284   -1.5315   -3.5484 O.co2     1 <0>        -0.7004
     17 O5         -0.4842    0.0375   -3.4990 O.co2     1 <0>        -0.6670
     18 C10         3.8434   -0.3857   -0.0366 C.3       1 <0>        -0.1137
     19 C11         4.6044    0.9230   -0.0368 C.2       1 <0>         0.5336
     20 O6          5.8100    1.0553   -0.0476 O.2       1 <0>        -0.5071
     21 N2          3.6932    1.9105   -0.0229 N.am      1 <0>        -0.6584
     22 H2         -0.9609    1.9025    0.0260 H         1 <0>         0.1454
     23 H3          1.1411    3.1720    0.0078 H         1 <0>         0.1331
     24 H4          1.2310   -1.7560   -0.0190 H         1 <0>         0.1430
     25 H5         -2.7545   -0.7429   -1.9151 H         1 <0>         0.4195
     26 H6         -1.3895   -3.4365   -4.0020 H         1 <0>         0.0543
     27 H7         -2.7464   -3.3201   -2.8560 H         1 <0>         0.0419
     28 H8         -3.2428   -2.2525   -4.9344 H         1 <0>         0.3650
     29 H9          4.0831   -0.9667    0.8540 H         1 <0>         0.1247
     30 H10         4.0660   -0.9571   -0.9377 H         1 <0>         0.1317
     31 H11         3.9184    2.8540   -0.0203 H         1 <0>         0.4132
@<TRIPOS>BOND
     1    1    6 ar
     2    1    2 ar
     3    1   22 1
     4    2    3 ar
     5    2   23 1
     6    3   21 1
     7    3    4 ar
     8    4    5 ar
     9    4   18 1
    10    5    6 ar
    11    5   24 1
    12    6    7 1
    13    7    8 2
    14    7    9 2
    15    7   10 1
    16   10   11 1
    17   10   25 1
    18   11   12 1
    19   11   13 1
    20   11   15 1
    21   13   14 1
    22   13   26 1
    23   13   27 1
    24   14   28 1
    25   15   16 2
    26   15   17 1
    27   18   19 1
    28   18   29 1
    29   18   30 1
    30   19   20 2
    31   19   21 am
    32   21   31 1
@<TRIPOS>MOLECULE
ZINC40580233
   39    39     0     0     0
SMALL
USER_CHARGES

@<TRIPOS>ATOM
      1 C1         -0.0187    1.5258    0.0104 C.3       1 <0>        -0.1467
      2 C2          0.0021   -0.0041    0.0020 C.3       1 <0>        -0.1268
      3 C3          0.7421   -0.5109    1.2415 C.3       1 <0>        -0.0804
      4 H1          1.7350   -0.0630    1.2804 H         1 <0>         0.0650
      5 C4         -0.0416   -0.1236    2.4973 C.3       1 <0>        -0.1427
      6 C5          0.8719   -2.0337    1.1708 C.3       1 <0>         0.0969
      7 H2         -0.1210   -2.4817    1.1320 H         1 <0>         0.0805
      8 C6          1.6438   -2.4152   -0.0660 C.2       1 <0>         0.4914
      9 O1          2.7705   -2.8700    0.0347 O.co2     1 <0>        -0.6891
     10 O2          1.1416   -2.2690   -1.1673 O.co2     1 <0>        -0.6929
     11 N1          1.5805   -2.5190    2.3577 N.am      1 <0>        -0.7065
     12 C7          1.3909   -3.7828    2.7860 C.2       1 <0>         0.7124
     13 O3          0.6318   -4.5201    2.1873 O.2       1 <0>        -0.5975
     14 N2          2.0427   -4.2293    3.8779 N.am      1 <0>        -0.7441
     15 C8          1.8366   -5.6030    4.3434 C.3       1 <0>         0.1259
     16 C9          2.6748   -5.8483    5.5715 C.2       1 <0>         0.5171
     17 O4          3.3754   -4.9629    6.0143 O.2       1 <0>        -0.5330
     18 N3          2.6460   -7.0517    6.1777 N.am      1 <0>        -0.7018
     19 C10         3.4608   -7.2902    7.3716 C.3       1 <0>         0.0802
     20 C11         4.2215   -8.6151    7.4546 C.3       1 <0>        -0.1935
     21 C12         2.9949   -8.3804    8.3387 C.3       1 <0>        -0.1895
     22 H3          1.0039    1.9031    0.0027 H         1 <0>         0.0477
     23 H4         -0.5459    1.8868   -0.8726 H         1 <0>         0.0477
     24 H5         -0.5289    1.8773    0.9072 H         1 <0>         0.0458
     25 H6         -1.0205   -0.3814    0.0098 H         1 <0>         0.0544
     26 H7          0.5123   -0.3556   -0.8948 H         1 <0>         0.1026
     27 H8         -1.0345   -0.5716    2.4584 H         1 <0>         0.0503
     28 H9          0.4856   -0.4847    3.3803 H         1 <0>         0.0478
     29 H10        -0.1341    0.9613    2.5476 H         1 <0>         0.0511
     30 H11         2.1861   -1.9308    2.8353 H         1 <0>         0.3874
     31 H12         2.6483   -3.6411    4.3555 H         1 <0>         0.4030
     32 H13         0.7843   -5.7502    4.5864 H         1 <0>         0.0949
     33 H14         2.1293   -6.3004    3.5584 H         1 <0>         0.0968
     34 H15         2.0856   -7.7598    5.8236 H         1 <0>         0.4054
     35 H16         3.9375   -6.4081    7.7993 H         1 <0>         0.1385
     36 H17         4.1156   -9.3093    6.6210 H         1 <0>         0.0984
     37 H18         5.1989   -8.6049    7.9370 H         1 <0>         0.1023
     38 H19         3.1655   -8.2158    9.4026 H         1 <0>         0.1031
     39 H20         2.0822   -8.9202    8.0866 H         1 <0>         0.0981
@<TRIPOS>BOND
     1    1    2 1
     2    1   22 1
     3    1   23 1
     4    1   24 1
     5    2    3 1
     6    2   25 1
     7    2   26 1
     8    3    4 1
     9    3    5 1
    10    3    6 1
    11    5   27 1
    12    5   28 1
    13    5   29 1
    14    6    7 1
    15    6    8 1
    16    6   11 1
    17    8    9 2
    18    8   10 1
    19   11   12 am
    20   11   30 1
    21   12   13 2
    22   12   14 am
    23   14   15 1
    24   14   31 1
    25   15   16 1
    26   15   32 1
    27   15   33 1
    28   16   17 2
    29   16   18 am
    30   18   19 1
    31   18   34 1
    32   19   21 1
    33   19   20 1
    34   19   35 1
    35   20   21 1
    36   20   36 1
    37   20   37 1
    38   21   38 1
    39   21   39 1
@<TRIPOS>MOLECULE
ZINC33933257
   31    33     0     0     0
SMALL
USER_CHARGES

@<TRIPOS>ATOM
      1 C1         -0.0163    1.3509    0.0095 C.2       1 <0>        -0.1432
      2 C2          1.1836    2.0381    0.0017 C.2       1 <0>        -0.1368
      3 C3          2.3434    1.3347   -0.0131 C.2       1 <0>        -0.1391
      4 S1          1.7533   -0.3502   -0.0166 S.3       1 <0>         0.1453
      5 C4          0.0021   -0.0041    0.0020 C.2       1 <0>        -0.1383
      6 C5         -1.1557   -0.9687    0.0079 C.3       1 <0>         0.1770
      7 H1         -2.0580   -0.4831    0.3798 H         1 <0>         0.1161
      8 C6         -1.3875   -1.5412   -1.3869 C.3       1 <0>        -0.1593
      9 H2         -0.4576   -1.8078   -1.8892 H         1 <0>         0.1394
     10 C7         -2.2502   -2.7844   -0.9475 C.3       1 <0>        -0.1297
     11 H3         -3.0857   -2.3357   -0.4102 H         1 <0>         0.0926
     12 C8         -2.8754   -3.1691   -2.1899 C.2       1 <0>         0.5711
     13 O1         -3.1610   -4.2886   -2.5570 O.2       1 <0>        -0.4338
     14 N1         -3.0757   -1.9910   -2.8658 N.am      1 <0>        -0.7137
     15 C9         -2.3871   -0.9290   -2.3167 C.2       1 <0>         0.5609
     16 O2         -2.5548    0.2522   -2.5313 O.2       1 <0>        -0.4670
     17 C10        -1.4708   -3.3711    0.1498 C.3       1 <0>         0.0555
     18 N2         -0.8307   -2.1817    0.8272 N.3       1 <0>        -0.6298
     19 C11        -2.3940   -4.0925    1.1337 C.3       1 <0>         0.1198
     20 O3         -1.6319   -4.5546    2.2507 O.3       1 <0>        -0.5495
     21 C12        -0.4332   -4.3205   -0.3917 C.2       1 <0>         0.4983
     22 O4          0.7497   -4.1178   -0.1770 O.co2     1 <0>        -0.6803
     23 O5         -0.7767   -5.2913   -1.0444 O.co2     1 <0>        -0.6682
     24 Cl1         3.9774    1.9208   -0.0256 Cl        1 <0>         0.0054
     25 H4         -0.9542    1.8861    0.0257 H         1 <0>         0.1417
     26 H5          1.1971    3.1180    0.0070 H         1 <0>         0.1378
     27 H6         -3.1651   -3.4042    1.4798 H         1 <0>         0.0350
     28 H7         -2.8620   -4.9422    0.6366 H         1 <0>         0.0537
     29 H8         -2.1541   -5.0226    2.9166 H         1 <0>         0.3655
     30 H9          0.1672   -2.3116    0.9007 H         1 <0>         0.3629
     31 H10        -3.6358   -1.9126   -3.6538 H         1 <0>         0.4107
@<TRIPOS>BOND
     1    1    5 2
     2    1    2 1
     3    1   25 1
     4    2    3 2
     5    2   26 1
     6    3    4 1
     7    3   24 1
     8    4    5 1
     9    5    6 1
    10    6    7 1
    11    6   18 1
    12    6    8 1
    13    8    9 1
    14    8   15 1
    15    8   10 1
    16   10   11 1
    17   10   12 1
    18   10   17 1
    19   12   13 2
    20   12   14 am
    21   14   15 am
    22   14   31 1
    23   15   16 2
    24   17   18 1
    25   17   19 1
    26   17   21 1
    27   18   30 1
    28   19   20 1
    29   19   27 1
    30   19   28 1
    31   20   29 1
    32   21   22 2
    33   21   23 1
@<TRIPOS>MOLECULE
ZINC50183858
   41    41     0     0     0
SMALL
USER_CHARGES

@<TRIPOS>ATOM
      1 C1         -0.0184    1.5028    0.0103 C.3       1 <0>        -0.0946
      2 C2          0.0021   -0.0041    0.0020 C.2       1 <0>         0.0870
      3 C3          0.0079   -0.7958   -1.0953 C.2       1 <0>        -0.2310
      4 C4          0.0284   -2.1267   -0.6656 C.2       1 <0>         0.0588
      5 N1          0.0347   -2.1338    0.6427 N.2       1 <0>        -0.2989
      6 N2          0.0237   -0.8054    1.0876 N.pl3     1 <0>        -0.4796
      7 H1          0.0286   -0.5133    2.0125 H         1 <0>         0.4355
      8 C5         -0.0058   -0.3266   -2.5273 C.3       1 <0>        -0.0372
      9 C6          1.4249   -0.0279   -2.9798 C.3       1 <0>        -0.1230
     10 C7          1.4110    0.4485   -4.4337 C.3       1 <0>         0.1409
     11 N3          2.7809    0.7345   -4.8670 N.am      1 <0>        -0.7552
     12 C8          3.0139    1.1710   -6.1207 C.2       1 <0>         0.7090
     13 O1          2.0872    1.3274   -6.8920 O.2       1 <0>        -0.5959
     14 N4          4.2742    1.4341   -6.5193 N.am      1 <0>        -0.7128
     15 C9          4.5275    1.9085   -7.8820 C.3       1 <0>         0.0927
     16 H2          3.7070    2.5511   -8.2014 H         1 <0>         0.0783
     17 C10         5.8364    2.7002   -7.9114 C.3       1 <0>        -0.0811
     18 C11         7.0041    1.7674   -7.5840 C.3       1 <0>        -0.1416
     19 C12         6.0382    3.3005   -9.3041 C.3       1 <0>        -0.1504
     20 C13         4.6332    0.7284   -8.8133 C.2       1 <0>         0.4951
     21 O2          4.5085   -0.4040   -8.3790 O.co2     1 <0>        -0.6872
     22 O3          4.8434    0.9061  -10.0010 O.co2     1 <0>        -0.6953
     23 H3          1.0042    1.8801    0.0026 H         1 <0>         0.0815
     24 H4         -0.5455    1.8639   -0.8728 H         1 <0>         0.0889
     25 H5         -0.5286    1.8543    0.9071 H         1 <0>         0.0685
     26 H6          0.0370   -2.9981   -1.3036 H         1 <0>         0.1835
     27 H7         -0.4322   -1.1046   -3.1605 H         1 <0>         0.0754
     28 H8         -0.6085    0.5781   -2.6075 H         1 <0>         0.0704
     29 H9          1.8513    0.7501   -2.3466 H         1 <0>         0.0640
     30 H10         2.0277   -0.9325   -2.8997 H         1 <0>         0.0687
     31 H11         0.9846   -0.3295   -5.0669 H         1 <0>         0.0631
     32 H12         0.8083    1.3532   -4.5139 H         1 <0>         0.0598
     33 H13         3.5203    0.6097   -4.2516 H         1 <0>         0.3894
     34 H14         5.0136    1.3093   -5.9039 H         1 <0>         0.3840
     35 H15         5.7932    3.5011   -7.1733 H         1 <0>         0.0543
     36 H16         7.0473    0.9665   -8.3221 H         1 <0>         0.0658
     37 H17         7.9366    2.3314   -7.6049 H         1 <0>         0.0456
     38 H18         6.8604    1.3397   -6.5917 H         1 <0>         0.0437
     39 H19         5.2063    3.9651   -9.5374 H         1 <0>         0.0443
     40 H20         6.9707    3.8645   -9.3251 H         1 <0>         0.0378
     41 H21         6.0814    2.4996  -10.0422 H         1 <0>         0.0979
@<TRIPOS>BOND
     1    1    2 1
     2    1   23 1
     3    1   24 1
     4    1   25 1
     5    2    6 1
     6    2    3 2
     7    3    4 1
     8    3    8 1
     9    4    5 2
    10    4   26 1
    11    5    6 1
    12    6    7 1
    13    8    9 1
    14    8   27 1
    15    8   28 1
    16    9   10 1
    17    9   29 1
    18    9   30 1
    19   10   11 1
    20   10   31 1
    21   10   32 1
    22   11   12 am
    23   11   33 1
    24   12   13 2
    25   12   14 am
    26   14   15 1
    27   14   34 1
    28   15   16 1
    29   15   17 1
    30   15   20 1
    31   17   18 1
    32   17   19 1
    33   17   35 1
    34   18   36 1
    35   18   37 1
    36   18   38 1
    37   19   39 1
    38   19   40 1
    39   19   41 1
    40   20   21 2
    41   20   22 1
@<TRIPOS>MOLECULE
ZINC03151579
   28    29     0     0     0
SMALL
USER_CHARGES
2-[5-[(2-hydroxy-5-nitro-phenyl)methylene]-4-oxo-2-thioxo-thiazolidin-3-yl]acetic acid
@<TRIPOS>ATOM
      1 C1          6.6761    3.1474    0.2742 C.ar      1 <0>        -0.0029
      2 C2          5.9679    4.1657    0.8843 C.ar      1 <0>        -0.2478
      3 C3          4.5858    4.1982    0.8004 C.ar      1 <0>         0.3321
      4 C4          3.9080    3.1917    0.0924 C.ar      1 <0>        -0.2553
      5 C5          4.6379    2.1641   -0.5157 C.ar      1 <0>         0.0795
      6 C6          6.0130    2.1527   -0.4254 C.ar      1 <0>        -0.1719
      7 N1          6.7847    1.0688   -1.0740 N.pl3     1 <0>         0.0620
      8 O1          7.9999    1.0531   -0.9918 O.2       1 <0>        -0.2267
      9 O2          6.2047    0.1927   -1.6900 O.3       1 <0>        -0.1953
     10 C7          2.4435    3.2143   -0.0036 C.2       1 <0>         0.1623
     11 C8          1.7364    2.0633    0.1318 C.2       1 <0>        -0.2840
     12 C9          2.1971    0.7162    0.5233 C.2       1 <0>         0.5420
     13 O3          3.3641    0.4908    0.7854 O.2       1 <0>        -0.4491
     14 N2          1.2777   -0.2329    0.5746 N.am      1 <0>        -0.4876
     15 C10        -0.0143    0.0213    0.2834 C.2       1 <0>         0.3261
     16 S1         -1.3392   -1.0629    0.2916 S.2       1 <0>        -0.4207
     17 S2         -0.0084    1.7621   -0.1140 S.3       1 <0>         0.0260
     18 C11         1.6716   -1.5911    0.9570 C.3       1 <0>         0.0365
     19 C12         2.0532   -2.3694   -0.2758 C.2       1 <0>         0.4707
     20 O4          2.0014   -1.8434   -1.3623 O.co2     1 <0>        -0.6189
     21 H1          7.7537    3.1274    0.3432 H         1 <0>         0.1270
     22 H2          6.4933    4.9371    1.4277 H         1 <0>         0.1242
     23 H3          4.1249    1.3837   -1.0581 H         1 <0>         0.1331
     24 H4          1.9284    4.1466   -0.1821 H         1 <0>         0.1478
     25 H5          2.5233   -1.5450    1.6357 H         1 <0>         0.1042
     26 H6          0.8369   -2.0850    1.4546 H         1 <0>         0.1132
     27 O5          2.4505   -3.6469   -0.1667 O.co2     1 <0>        -0.7555
     28 O6          3.8897    5.1980    1.3987 O.3       1 <0>        -0.6710
@<TRIPOS>BOND
     1    1    6 ar
     2    1    2 ar
     3    1   21 1
     4    2    3 ar
     5    2   22 1
     6    3    4 ar
     7    3   28 1
     8    4    5 ar
     9    4   10 1
    10    5    6 ar
    11    5   23 1
    12    6    7 1
    13    7    8 2
    14    7    9 1
    15   10   11 2
    16   10   24 1
    17   11   17 1
    18   11   12 1
    19   12   13 2
    20   12   14 am
    21   14   15 1
    22   14   18 1
    23   15   16 2
    24   15   17 1
    25   18   19 1
    26   18   25 1
    27   18   26 1
    28   19   20 2
    29   19   27 1
@<TRIPOS>MOLECULE
ZINC19764111
   37    39     0     0     0
SMALL
USER_CHARGES
[(1S)-1-carboxypropyl]-methyl-oxo-BLAHcarboxylic acid
@<TRIPOS>ATOM
      1 C1         -4.8868    3.3217   -2.4278 C.3       1 <0>        -0.1423
      2 C2         -5.1767    2.4778   -1.1849 C.3       1 <0>        -0.1293
      3 C3         -4.7507    3.2490    0.0660 C.3       1 <0>         0.0796
      4 H1         -5.2123    4.2472    0.0912 H         1 <0>         0.0963
      5 C4         -5.1477    2.4719    1.2946 C.2       1 <0>         0.4698
      6 O1         -4.3034    2.1103    2.0797 O.co2     1 <0>        -0.6103
      7 O2         -6.4392    2.1815    1.5168 O.co2     1 <0>        -0.7665
      8 N1         -3.2976    3.4347    0.0539 N.am      1 <0>        -0.4982
      9 C5         -2.7877    4.6932    0.0582 C.2       1 <0>         0.3991
     10 N2         -1.4981    4.9017    0.0474 N.2       1 <0>        -0.5216
     11 C6         -0.6427    3.8824    0.0320 C.2       1 <0>         0.0946
     12 C7         -1.0751    2.5498    0.0314 C.2       1 <0>        -0.1969
     13 C8         -2.4944    2.3539    0.0385 C.2       1 <0>         0.5476
     14 O3         -2.9661    1.2299    0.0344 O.2       1 <0>        -0.4328
     15 C9         -0.0187    1.5270    0.0104 C.2       1 <0>        -0.0020
     16 C10         1.2516    1.9663    0.0007 C.2       1 <0>        -0.2435
     17 S1          1.1247    3.7398    0.0148 S.3       1 <0>         0.0992
     18 C11         2.2438    0.8348   -0.0182 C.3       1 <0>        -0.0211
     19 C12         1.4200   -0.3954   -0.4581 C.3       1 <0>        -0.0787
     20 C13         0.0021   -0.0041    0.0020 C.3       1 <0>        -0.0892
     21 H2         -0.2536   -0.4270    0.9848 H         1 <0>         0.0881
     22 C14        -1.0261   -0.5339   -0.9640 C.2       1 <0>         0.4758
     23 O4         -1.7165    0.2332   -1.5924 O.co2     1 <0>        -0.6039
     24 O5         -1.1748   -1.8580   -1.1264 O.co2     1 <0>        -0.7895
     25 C15        -3.7271    5.8715    0.0763 C.3       1 <0>        -0.1066
     26 H3         -5.1931    2.7672   -3.3271 H         1 <0>         0.0525
     27 H4         -3.8098    3.5393   -2.4802 H         1 <0>         0.0448
     28 H5         -5.4491    4.2653   -2.3696 H         1 <0>         0.0444
     29 H6         -6.2537    2.2602   -1.1325 H         1 <0>         0.0821
     30 H7         -4.6144    1.5341   -1.2431 H         1 <0>         0.0971
     31 H8          3.0492    1.0652   -0.7311 H         1 <0>         0.0653
     32 H9          2.6704    0.7044    0.9873 H         1 <0>         0.0719
     33 H10         1.5024   -0.5213   -1.5478 H         1 <0>         0.0689
     34 H11         1.8060   -1.2942    0.0451 H         1 <0>         0.0740
     35 H12        -3.1447    6.8047    0.0775 H         1 <0>         0.0973
     36 H13        -4.3522    5.8282    0.9804 H         1 <0>         0.0932
     37 H14        -4.3700    5.8416   -0.8158 H         1 <0>         0.0912
@<TRIPOS>BOND
     1    1    2 1
     2    1   26 1
     3    1   27 1
     4    1   28 1
     5    2    3 1
     6    2   29 1
     7    2   30 1
     8    3    4 1
     9    3    5 1
    10    3    8 1
    11    5    6 2
    12    5    7 1
    13    8   13 am
    14    8    9 1
    15    9   10 2
    16    9   25 1
    17   10   11 1
    18   11   17 1
    19   11   12 2
    20   12   13 1
    21   12   15 1
    22   13   14 2
    23   15   20 1
    24   15   16 2
    25   16   17 1
    26   16   18 1
    27   18   19 1
    28   18   31 1
    29   18   32 1
    30   19   20 1
    31   19   33 1
    32   19   34 1
    33   20   21 1
    34   20   22 1
    35   22   23 2
    36   22   24 1
    37   25   35 1
    38   25   36 1
    39   25   37 1
@<TRIPOS>MOLECULE
ZINC37263658
   31    30     0     0     0
SMALL
USER_CHARGES

@<TRIPOS>ATOM
      1 C1         -0.2964    1.6943    0.4092 C.3       1 <0>        -0.0275
      2 C2         -0.0569    0.1922    0.2436 C.3       1 <0>         0.0613
      3 N1         -1.3276   -0.4745   -0.0708 N.3       1 <0>        -0.4969
      4 C3         -1.8317   -0.0539   -1.3850 C.3       1 <0>         0.0202
      5 C4         -3.3180   -0.3995   -1.4955 C.3       1 <0>        -0.0263
      6 C5         -3.8066   -0.0412   -2.8371 C.1       1 <0>         0.2251
      7 N2         -4.1837    0.2354   -3.8724 N.1       1 <0>        -0.4648
      8 C6         -1.1864   -1.9351   -0.0040 C.3       1 <0>         0.0151
      9 H1         -1.9764   -2.4038   -0.5907 H         1 <0>         0.0702
     10 C7          0.1768   -2.3420   -0.5671 C.3       1 <0>        -0.1070
     11 C8          0.2312   -2.0115   -2.0599 C.3       1 <0>        -0.1857
     12 C9          1.5159   -2.5394   -2.6448 C.2       1 <0>         0.4889
     13 O1          2.3139   -3.1257   -1.9335 O.co2     1 <0>        -0.6958
     14 O2          1.7571   -2.3802   -3.8293 O.co2     1 <0>        -0.7200
     15 C10        -1.2919   -2.3849    1.4305 C.2       1 <0>         0.5111
     16 O3         -1.5584   -3.5466    1.6871 O.co2     1 <0>        -0.7094
     17 O4         -1.1108   -1.5870    2.3344 O.co2     1 <0>        -0.6879
     18 C11         0.9768    2.3623    0.7243 C.1       1 <0>         0.2262
     19 N3          1.9595    2.8779    0.9675 N.1       1 <0>        -0.4636
     20 H2         -0.7012    2.1020   -0.5171 H         1 <0>         0.0995
     21 H3         -1.0051    1.8619    1.2203 H         1 <0>         0.1180
     22 H4          0.6518    0.0246   -0.5674 H         1 <0>         0.0432
     23 H5          0.3478   -0.2155    1.1699 H         1 <0>         0.1032
     24 H6         -1.6995    1.0222   -1.4975 H         1 <0>         0.0728
     25 H7         -1.2790   -0.5718   -2.1689 H         1 <0>         0.0687
     26 H8         -3.4557   -1.4684   -1.3322 H         1 <0>         0.1112
     27 H9         -3.8775    0.1578   -0.7442 H         1 <0>         0.1141
     28 H10         0.9630   -1.7964   -0.0452 H         1 <0>         0.0587
     29 H11         0.3230   -3.4130   -0.4265 H         1 <0>         0.0664
     30 H12        -0.6158   -2.4749   -2.5658 H         1 <0>         0.0518
     31 H13         0.1878   -0.9307   -2.1946 H         1 <0>         0.0591
@<TRIPOS>BOND
     1    1    2 1
     2    1   18 1
     3    1   20 1
     4    1   21 1
     5    2    3 1
     6    2   22 1
     7    2   23 1
     8    3    4 1
     9    3    8 1
    10    4    5 1
    11    4   24 1
    12    4   25 1
    13    5    6 1
    14    5   26 1
    15    5   27 1
    16    6    7 3
    17    8    9 1
    18    8   10 1
    19    8   15 1
    20   10   11 1
    21   10   28 1
    22   10   29 1
    23   11   12 1
    24   11   30 1
    25   11   31 1
    26   12   13 2
    27   12   14 1
    28   15   16 2
    29   15   17 1
    30   18   19 3
@<TRIPOS>MOLECULE
ZINC43214792
   28    29     0     0     0
SMALL
USER_CHARGES

@<TRIPOS>ATOM
      1 C1         -0.0187    1.5258    0.0104 C.3       1 <0>        -0.1263
      2 C2          0.0021   -0.0041    0.0020 C.3       1 <0>        -0.0826
      3 C3         -1.4088   -0.6154    0.3200 C.3       1 <0>        -0.0529
      4 H1         -2.1983   -0.4153   -0.4043 H         1 <0>         0.0857
      5 C4         -1.0230   -2.1135    0.5182 C.3       1 <0>        -0.1728
      6 C5          0.3683   -2.0804    1.1337 C.2       1 <0>         0.4155
      7 O1          1.0524   -3.0244    1.4486 O.2       1 <0>        -0.4739
      8 C6          0.7170   -0.5915    1.2694 C.3       1 <0>        -0.1365
      9 H2          1.7769   -0.3593    1.3737 H         1 <0>         0.0842
     10 C7         -0.2225   -0.0704    2.3994 C.3       1 <0>        -0.1290
     11 H3          0.0569    0.9425    2.6893 H         1 <0>         0.0494
     12 C8         -1.6431   -0.0632    1.7599 C.3       1 <0>        -0.1413
     13 H4         -2.0580    0.9439    1.7184 H         1 <0>         0.0526
     14 C9         -2.5573   -0.9789    2.5324 C.2       1 <0>         0.4984
     15 O2         -2.4487   -1.0689    3.7434 O.co2     1 <0>        -0.6417
     16 O3         -3.4055   -1.6298    1.9463 O.co2     1 <0>        -0.7255
     17 C10        -0.1710   -0.9904    3.5919 C.2       1 <0>         0.5325
     18 O4         -0.1686   -0.5270    4.7196 O.co2     1 <0>        -0.7088
     19 O5         -0.1316   -2.1980    3.4289 O.co2     1 <0>        -0.6838
     20 C11         0.5904   -0.5561   -1.2980 C.3       1 <0>        -0.1301
     21 H5          1.0039    1.9031    0.0027 H         1 <0>         0.0435
     22 H6         -0.5459    1.8868   -0.8726 H         1 <0>         0.0445
     23 H7         -0.5289    1.8773    0.9072 H         1 <0>         0.0652
     24 H8         -1.7256   -2.5997    1.1950 H         1 <0>         0.1248
     25 H9         -1.0009   -2.6296   -0.4416 H         1 <0>         0.0601
     26 H10         1.6094   -0.1889   -1.4204 H         1 <0>         0.0457
     27 H11         0.5989   -1.6453   -1.2593 H         1 <0>         0.0538
     28 H12        -0.0180   -0.2272   -2.1406 H         1 <0>         0.0492
@<TRIPOS>BOND
     1    1    2 1
     2    1   21 1
     3    1   22 1
     4    1   23 1
     5    2    8 1
     6    2    3 1
     7    2   20 1
     8    3    4 1
     9    3   12 1
    10    3    5 1
    11    5    6 1
    12    5   24 1
    13    5   25 1
    14    6    7 2
    15    6    8 1
    16    8    9 1
    17    8   10 1
    18   10   11 1
    19   10   12 1
    20   10   17 1
    21   12   13 1
    22   12   14 1
    23   14   15 2
    24   14   16 1
    25   17   18 2
    26   17   19 1
    27   20   26 1
    28   20   27 1
    29   20   28 1
@<TRIPOS>MOLECULE
ZINC57958330
   29    29     0     0     0
SMALL
USER_CHARGES

@<TRIPOS>ATOM
      1 C1         -0.0173    1.4248    0.0099 C.3       1 <0>         0.0294
      2 O1          0.0021   -0.0041    0.0020 O.3       1 <0>        -0.3022
      3 C2          0.6060   -0.6073   -1.0561 C.ar      1 <0>         0.1068
      4 C3          1.1730    0.1609   -2.0625 C.ar      1 <0>        -0.1923
      5 C4          1.7862   -0.4533   -3.1370 C.ar      1 <0>        -0.1424
      6 C5          1.8352   -1.8352   -3.2099 C.ar      1 <0>         0.0533
      7 C6          1.2695   -2.6031   -2.2066 C.ar      1 <0>        -0.0896
      8 C7          0.6608   -1.9912   -1.1275 C.ar      1 <0>        -0.0276
      9 C8          0.0510   -2.8274   -0.0321 C.3       1 <0>        -0.1261
     10 H1         -0.3832   -2.1741    0.7247 H         1 <0>         0.0752
     11 C9         -1.0416   -3.7217   -0.6214 C.3       1 <0>        -0.0581
     12 C10        -1.7449   -4.4786    0.5071 C.3       1 <0>        -0.1752
     13 C11        -2.8211   -5.3595   -0.0733 C.2       1 <0>         0.4945
     14 O2         -3.0082   -5.3801   -1.2780 O.co2     1 <0>        -0.7054
     15 O3         -3.5047   -6.0516    0.6617 O.co2     1 <0>        -0.7205
     16 C12         1.1176   -3.6859    0.5975 C.2       1 <0>         0.5135
     17 O4          1.3672   -3.5746    1.7857 O.co2     1 <0>        -0.7028
     18 O5          1.7310   -4.4918   -0.0814 O.co2     1 <0>        -0.6926
     19 F1          2.4354   -2.4347   -4.2614 F         1 <0>        -0.1503
     20 H2          1.0053    1.8021    0.0021 H         1 <0>         0.0481
     21 H3         -0.5445    1.7859   -0.8732 H         1 <0>         0.0482
     22 H4         -0.5275    1.7763    0.9067 H         1 <0>         0.0934
     23 H5          1.1346    1.2388   -2.0060 H         1 <0>         0.1267
     24 H6          2.2274    0.1446   -3.9208 H         1 <0>         0.1245
     25 H7          1.3081   -3.6808   -2.2649 H         1 <0>         0.1564
     26 H8         -1.7671   -3.1064   -1.1535 H         1 <0>         0.0427
     27 H9         -0.5934   -4.4351   -1.3130 H         1 <0>         0.0619
     28 H10        -1.0194   -5.0939    1.0392 H         1 <0>         0.0619
     29 H11        -2.1931   -3.7652    1.1988 H         1 <0>         0.0487
@<TRIPOS>BOND
     1    1    2 1
     2    1   20 1
     3    1   21 1
     4    1   22 1
     5    2    3 1
     6    3    8 ar
     7    3    4 ar
     8    4    5 ar
     9    4   23 1
    10    5    6 ar
    11    5   24 1
    12    6    7 ar
    13    6   19 1
    14    7    8 ar
    15    7   25 1
    16    8    9 1
    17    9   10 1
    18    9   11 1
    19    9   16 1
    20   11   12 1
    21   11   26 1
    22   11   27 1
    23   12   13 1
    24   12   28 1
    25   12   29 1
    26   13   14 2
    27   13   15 1
    28   16   17 2
    29   16   18 1
@<TRIPOS>MOLECULE
ZINC01703837
   29    28     0     0     0
SMALL
USER_CHARGES
4-[2-(2-carboxyacetyl)aminoethylamino]-4-oxo-butanoic acid
@<TRIPOS>ATOM
      1 C1         -1.3296    1.9443    0.0189 C.3       1 <0>        -0.1178
      2 C2         -2.4789    0.9344    0.0189 C.3       1 <0>        -0.1406
      3 C3         -3.7941    1.6700    0.0291 C.2       1 <0>         0.4608
      4 O1         -3.8105    2.8782    0.0358 O.co2     1 <0>        -0.6443
      5 C4         -0.0144    1.2086    0.0087 C.2       1 <0>         0.5136
      6 O2          0.0021   -0.0041    0.0020 O.2       1 <0>        -0.5454
      7 N1          1.1435    1.8983    0.0013 N.am      1 <0>        -0.7342
      8 C5          2.4220    1.1832   -0.0147 C.3       1 <0>         0.1104
      9 C6          3.5713    2.1931   -0.0203 C.3       1 <0>         0.1111
     10 N2          4.8498    1.4780   -0.0363 N.am      1 <0>        -0.7452
     11 C7          6.0077    2.1677   -0.0437 C.2       1 <0>         0.5090
     12 O3          5.9912    3.3804   -0.0370 O.2       1 <0>        -0.4912
     13 C8          7.3228    1.4320   -0.0602 C.3       1 <0>        -0.1813
     14 C9          8.4548    2.4268   -0.0656 C.2       1 <0>         0.4621
     15 O4          8.2180    3.6116   -0.0570 O.co2     1 <0>        -0.5974
     16 H1         -1.3916    2.5653    0.9126 H         1 <0>         0.0930
     17 H2         -1.4000    2.5749   -0.8673 H         1 <0>         0.0931
     18 H3         -2.4169    0.3134   -0.8748 H         1 <0>         0.0702
     19 H4         -2.4084    0.3037    0.9051 H         1 <0>         0.0702
     20 H5          1.1304    2.8682    0.0067 H         1 <0>         0.4032
     21 H6          2.4967    0.5526    0.8712 H         1 <0>         0.0699
     22 H7          2.4797    0.5621   -0.9086 H         1 <0>         0.0699
     23 H8          3.4966    2.8237   -0.9062 H         1 <0>         0.0686
     24 H9          3.5136    2.8141    0.8737 H         1 <0>         0.0685
     25 H10         4.8629    0.5081   -0.0416 H         1 <0>         0.3955
     26 H11         7.3975    0.8014    0.8258 H         1 <0>         0.0924
     27 H12         7.3805    0.8110   -0.9541 H         1 <0>         0.0924
     28 O5         -4.9473    0.9832    0.0309 O.co2     1 <0>        -0.7761
     29 O6          9.7262    1.9966   -0.0801 O.co2     1 <0>        -0.7803
@<TRIPOS>BOND
     1    1    2 1
     2    1    5 1
     3    1   16 1
     4    1   17 1
     5    2    3 1
     6    2   18 1
     7    2   19 1
     8    3    4 2
     9    3   28 1
    10    5    6 2
    11    5    7 am
    12    7    8 1
    13    7   20 1
    14    8    9 1
    15    8   21 1
    16    8   22 1
    17    9   10 1
    18    9   23 1
    19    9   24 1
    20   10   11 am
    21   10   25 1
    22   11   12 2
    23   11   13 1
    24   13   14 1
    25   13   26 1
    26   13   27 1
    27   14   15 2
    28   14   29 1
@<TRIPOS>MOLECULE
ZINC13367682
   34    34     0     0     0
SMALL
USER_CHARGES
5-[[(1S)-4-amino-1-carboxy-4-oxo-butyl]sulfamoyl]-2-fluoro-benzoic acid
@<TRIPOS>ATOM
      1 C1         -1.1128    7.0815    0.8126 C.ar      1 <0>         0.0105
      2 C2         -1.8478    8.1071    1.3778 C.ar      1 <0>        -0.1928
      3 C3         -1.3458    8.8058    2.4602 C.ar      1 <0>         0.1815
      4 C4         -0.0937    8.4679    2.9852 C.ar      1 <0>        -0.1734
      5 C5          0.6386    7.4266    2.4103 C.ar      1 <0>         0.0711
      6 C6          0.1243    6.7395    1.3312 C.ar      1 <0>        -0.6858
      7 S1          1.0480    5.4263    0.6053 S.o2      1 <0>         2.7047
      8 O1          2.4120    5.6643    0.9246 O.2       1 <0>        -0.9727
      9 O2          0.5900    5.2995   -0.7339 O.2       1 <0>        -0.9785
     10 N1          0.6151    4.0324    1.3875 N.pl3     1 <0>        -1.0903
     11 C7         -0.7552    3.5260    1.2775 C.3       1 <0>         0.1032
     12 H1         -1.2033    3.8884    0.3523 H         1 <0>         0.0899
     13 C8         -0.7345    1.9962    1.2691 C.3       1 <0>        -0.0849
     14 C9         -0.0184    1.5028    0.0103 C.3       1 <0>        -0.1449
     15 C10         0.0021   -0.0041    0.0020 C.2       1 <0>         0.5163
     16 O3         -0.5061   -0.6224    0.9132 O.2       1 <0>        -0.5402
     17 N2          0.5851   -0.6645   -1.0180 N.am      1 <0>        -0.8644
     18 C11        -1.5658    4.0110    2.4518 C.2       1 <0>         0.4464
     19 O4         -1.0516    4.7080    3.2942 O.co2     1 <0>        -0.6032
     20 C12         0.4503    9.2074    4.1406 C.2       1 <0>         0.4978
     21 O5         -0.1894   10.1125    4.6382 O.co2     1 <0>        -0.6263
     22 F1         -2.0622    9.8110    3.0094 F         1 <0>        -0.1206
     23 H2         -1.5075    6.5419   -0.0355 H         1 <0>         0.1355
     24 H3         -2.8139    8.3659    0.9702 H         1 <0>         0.1332
     25 H4          1.6060    7.1605    2.8100 H         1 <0>         0.1497
     26 H5          1.2688    3.5512    1.9186 H         1 <0>         0.4130
     27 H6         -1.7571    1.6189    1.2768 H         1 <0>         0.0912
     28 H7         -0.2073    1.6351    2.1522 H         1 <0>         0.0703
     29 H8          1.0042    1.8801    0.0026 H         1 <0>         0.0937
     30 H9         -0.5455    1.8639   -0.8728 H         1 <0>         0.0970
     31 H10         0.9915   -0.1699   -1.7467 H         1 <0>         0.3999
     32 H11         0.5982   -1.6344   -1.0233 H         1 <0>         0.3940
     33 O6         -2.8590    3.6685    2.5619 O.co2     1 <0>        -0.7699
     34 O7          1.6562    8.8788    4.6435 O.co2     1 <0>        -0.7509
@<TRIPOS>BOND
     1    1    6 ar
     2    1    2 ar
     3    1   23 1
     4    2    3 ar
     5    2   24 1
     6    3    4 ar
     7    3   22 1
     8    4    5 ar
     9    4   20 1
    10    5    6 ar
    11    5   25 1
    12    6    7 1
    13    7    8 2
    14    7    9 2
    15    7   10 1
    16   10   11 1
    17   10   26 1
    18   11   12 1
    19   11   13 1
    20   11   18 1
    21   13   14 1
    22   13   27 1
    23   13   28 1
    24   14   15 1
    25   14   29 1
    26   14   30 1
    27   15   16 2
    28   15   17 am
    29   17   31 1
    30   17   32 1
    31   18   19 2
    32   18   33 1
    33   20   21 2
    34   20   34 1
@<TRIPOS>MOLECULE
ZINC37584445
   31    30     0     0     0
SMALL
USER_CHARGES

@<TRIPOS>ATOM
      1 C1         -0.0225    1.8097    0.0120 C.3       1 <0>        -0.6564
      2 S1          0.0021   -0.0041    0.0020 S.o2      1 <0>         2.4186
      3 O1          0.7981   -0.4488    1.0919 O.2       1 <0>        -0.9427
      4 O2         -1.3351   -0.4711   -0.1129 O.2       1 <0>        -0.9418
      5 C2          0.8773   -0.3845   -1.5406 C.3       1 <0>        -0.5830
      6 C3          0.9858   -1.9018   -1.7046 C.3       1 <0>        -0.1332
      7 C4          1.7130   -2.2178   -2.9862 C.2       1 <0>         0.5131
      8 O3          2.1058   -1.3181   -3.6983 O.2       1 <0>        -0.5570
      9 N1          1.9268   -3.5004   -3.3410 N.am      1 <0>        -0.6818
     10 C5          2.6337   -3.8076   -4.5869 C.3       1 <0>         0.0736
     11 H1          3.4025   -3.0554   -4.7634 H         1 <0>         0.0769
     12 C6          3.2858   -5.1872   -4.4763 C.3       1 <0>        -0.0827
     13 C7          4.3674   -5.1548   -3.3947 C.3       1 <0>        -0.1775
     14 C8          5.0098   -6.5137   -3.2858 C.2       1 <0>         0.4909
     15 O4          4.6371   -7.4237   -4.0065 O.co2     1 <0>        -0.6975
     16 O5          5.9022   -6.7031   -2.4770 O.co2     1 <0>        -0.7195
     17 C9          1.6555   -3.8047   -5.7333 C.2       1 <0>         0.4976
     18 O6          2.0279   -3.4930   -6.8516 O.co2     1 <0>        -0.7017
     19 O7          0.4918   -4.1142   -5.5424 O.co2     1 <0>        -0.6990
     20 H2          1.0001    2.1870    0.0043 H         1 <0>         0.1278
     21 H3         -0.5497    2.1708   -0.8711 H         1 <0>         0.1282
     22 H4         -0.5327    2.1613    0.9088 H         1 <0>         0.1254
     23 H5          0.3268    0.0336   -2.3834 H         1 <0>         0.1393
     24 H6          1.8766    0.0498   -1.5080 H         1 <0>         0.1382
     25 H7          1.5364   -2.3199   -0.8619 H         1 <0>         0.1051
     26 H8         -0.0134   -2.3361   -1.7372 H         1 <0>         0.1071
     27 H9          1.6126   -4.2200   -2.7715 H         1 <0>         0.3948
     28 H10         2.5297   -5.9264   -4.2120 H         1 <0>         0.0611
     29 H11         3.7361   -5.4539   -5.4325 H         1 <0>         0.0720
     30 H12         5.1236   -4.4156   -3.6590 H         1 <0>         0.0522
     31 H13         3.9172   -4.8881   -2.4385 H         1 <0>         0.0520
@<TRIPOS>BOND
     1    1    2 1
     2    1   20 1
     3    1   21 1
     4    1   22 1
     5    2    3 2
     6    2    4 2
     7    2    5 1
     8    5    6 1
     9    5   23 1
    10    5   24 1
    11    6    7 1
    12    6   25 1
    13    6   26 1
    14    7    8 2
    15    7    9 am
    16    9   10 1
    17    9   27 1
    18   10   11 1
    19   10   12 1
    20   10   17 1
    21   12   13 1
    22   12   28 1
    23   12   29 1
    24   13   14 1
    25   13   30 1
    26   13   31 1
    27   14   15 2
    28   14   16 1
    29   17   18 2
    30   17   19 1
@<TRIPOS>MOLECULE
ZINC43433223
   44    44     0     0     0
SMALL
USER_CHARGES

@<TRIPOS>ATOM
      1 C1          0.3912    2.1147   -0.2534 C.3       1 <0>        -0.1444
      2 C2          0.2450    0.6023   -0.0737 C.3       1 <0>        -0.0979
      3 C3          0.9682    0.1681    1.2028 C.3       1 <0>        -0.1416
      4 C4         -1.2382    0.2424    0.0330 C.3       1 <0>        -0.1018
      5 C5         -1.9371    0.5623   -1.2900 C.3       1 <0>         0.0774
      6 H1         -1.7607    1.6057   -1.5511 H         1 <0>         0.0794
      7 C6         -3.4181    0.3238   -1.1462 C.2       1 <0>         0.4847
      8 O1         -4.0908    1.0673   -0.4524 O.co2     1 <0>        -0.7153
      9 O2         -3.9437   -0.6125   -1.7237 O.co2     1 <0>        -0.6721
     10 N1         -1.4035   -0.3021   -2.3456 N.am      1 <0>        -0.7032
     11 C7         -1.4610    0.0924   -3.6330 C.2       1 <0>         0.5195
     12 O3         -1.9545    1.1631   -3.9176 O.2       1 <0>        -0.5500
     13 C8         -0.9121   -0.7967   -4.7189 C.3       1 <0>        -0.1317
     14 C9         -1.2317   -0.1888   -6.0861 C.3       1 <0>        -0.0105
     15 C10        -0.5981   -1.0415   -7.2047 C.3       1 <0>        -0.1024
     16 C11        -0.1336   -0.0037   -8.2565 C.3       1 <0>        -0.1270
     17 C12         0.3797    1.1653   -7.3797 C.3       1 <0>        -0.1246
     18 C13        -0.6099    1.2143   -6.1973 C.3       1 <0>        -0.1029
     19 C14        -2.7469   -0.1077   -6.2819 C.3       1 <0>        -0.1770
     20 C15        -3.3378   -1.4921   -6.2085 C.2       1 <0>         0.4973
     21 O4         -2.6059   -2.4635   -6.1242 O.co2     1 <0>        -0.7005
     22 O5         -4.5476   -1.6406   -6.2334 O.co2     1 <0>        -0.7090
     23 H2          1.4479    2.3711   -0.3294 H         1 <0>         0.0427
     24 H3         -0.1240    2.4240   -1.1628 H         1 <0>         0.0612
     25 H4         -0.0461    2.6264    0.6039 H         1 <0>         0.0505
     26 H5          0.6823    0.0906   -0.9310 H         1 <0>         0.0685
     27 H6          0.5309    0.6798    2.0601 H         1 <0>         0.0503
     28 H7          0.8641   -0.9093    1.3308 H         1 <0>         0.0506
     29 H8          2.0249    0.4245    1.1268 H         1 <0>         0.0454
     30 H9         -1.3394   -0.8211    0.2495 H         1 <0>         0.0574
     31 H10        -1.6959    0.8216    0.8349 H         1 <0>         0.0731
     32 H11        -1.0088   -1.1585   -2.1179 H         1 <0>         0.3853
     33 H12         0.1682   -0.8856   -4.6043 H         1 <0>         0.0641
     34 H13        -1.3677   -1.7842   -4.6449 H         1 <0>         0.1210
     35 H14         0.2536   -1.6028   -6.8205 H         1 <0>         0.0498
     36 H15        -1.3379   -1.7163   -7.6354 H         1 <0>         0.0871
     37 H16         0.6712   -0.4090   -8.8698 H         1 <0>         0.0498
     38 H17        -0.9698    0.3175   -8.8776 H         1 <0>         0.0580
     39 H18         1.3894    0.9604   -7.0238 H         1 <0>         0.0525
     40 H19         0.3536    2.1011   -7.9381 H         1 <0>         0.0487
     41 H20        -1.3876    1.9530   -6.3917 H         1 <0>         0.0594
     42 H21        -0.0805    1.4622   -5.2773 H         1 <0>         0.0552
     43 H22        -3.1815    0.5148   -5.4997 H         1 <0>         0.0791
     44 H23        -2.9644    0.3290   -7.2566 H         1 <0>         0.0434
@<TRIPOS>BOND
     1    1    2 1
     2    1   23 1
     3    1   24 1
     4    1   25 1
     5    2    3 1
     6    2    4 1
     7    2   26 1
     8    3   27 1
     9    3   28 1
    10    3   29 1
    11    4    5 1
    12    4   30 1
    13    4   31 1
    14    5    6 1
    15    5    7 1
    16    5   10 1
    17    7    8 2
    18    7    9 1
    19   10   11 am
    20   10   32 1
    21   11   12 2
    22   11   13 1
    23   13   14 1
    24   13   33 1
    25   13   34 1
    26   14   18 1
    27   14   15 1
    28   14   19 1
    29   15   16 1
    30   15   35 1
    31   15   36 1
    32   16   17 1
    33   16   37 1
    34   16   38 1
    35   17   18 1
    36   17   39 1
    37   17   40 1
    38   18   41 1
    39   18   42 1
    40   19   20 1
    41   19   43 1
    42   19   44 1
    43   20   21 2
    44   20   22 1
@<TRIPOS>MOLECULE
ZINC61826573
   31    30     0     0     0
SMALL
USER_CHARGES

@<TRIPOS>ATOM
      1 C1         -0.0187    1.5258    0.0104 C.3       1 <0>        -0.1554
      2 C2          0.0021   -0.0041    0.0020 C.3       1 <0>        -0.0194
      3 C3          0.7421   -0.5109    1.2415 C.3       1 <0>        -0.1554
      4 C4         -1.4333   -0.5336    0.0129 C.3       1 <0>        -0.1337
      5 C5         -2.1387   -0.0476    1.2528 C.2       1 <0>         0.5066
      6 O1         -1.5512    0.6533    2.0493 O.2       1 <0>        -0.5252
      7 N1         -3.4224   -0.3919    1.4765 N.am      1 <0>        -0.7393
      8 C6         -4.1081    0.0805    2.6818 C.3       1 <0>         0.1418
      9 C7         -5.5435   -0.4490    2.6926 C.3       1 <0>        -0.1938
     10 C8         -6.2489    0.0370    3.9325 C.2       1 <0>         0.4956
     11 O2         -5.6583    0.7416    4.7333 O.co2     1 <0>        -0.6921
     12 O3         -7.4101   -0.2745    4.1349 O.co2     1 <0>        -0.7080
     13 C9          0.7182   -0.4975   -1.2568 C.3       1 <0>        -0.1746
     14 C10         2.1320    0.0241   -1.2675 C.2       1 <0>         0.4953
     15 O4          2.5300    0.7255   -0.3530 O.co2     1 <0>        -0.6799
     16 O5          2.8779   -0.2552   -2.1906 O.co2     1 <0>        -0.7169
     17 H1          1.0039    1.9031    0.0027 H         1 <0>         0.0901
     18 H2         -0.5459    1.8868   -0.8726 H         1 <0>         0.0199
     19 H3         -0.5289    1.8773    0.9072 H         1 <0>         0.0653
     20 H4          0.2319   -0.1594    2.1383 H         1 <0>         0.0652
     21 H5          0.7568   -1.6008    1.2356 H         1 <0>         0.0199
     22 H6          1.7647   -0.1336    1.2338 H         1 <0>         0.0901
     23 H7         -1.9605   -0.1726   -0.8702 H         1 <0>         0.0801
     24 H8         -1.4185   -1.6235    0.0069 H         1 <0>         0.0801
     25 H9         -3.8923   -0.9525    0.8394 H         1 <0>         0.3907
     26 H10        -3.5809   -0.2805    3.5648 H         1 <0>         0.0642
     27 H11        -4.1229    1.1704    2.6878 H         1 <0>         0.0641
     28 H12        -6.0707   -0.0880    1.8096 H         1 <0>         0.0613
     29 H13        -5.5287   -1.5389    2.6867 H         1 <0>         0.0613
     30 H14         0.7330   -1.5874   -1.2628 H         1 <0>         0.0511
     31 H15         0.1910   -0.1364   -2.1398 H         1 <0>         0.0511
@<TRIPOS>BOND
     1    1    2 1
     2    1   17 1
     3    1   18 1
     4    1   19 1
     5    2    3 1
     6    2    4 1
     7    2   13 1
     8    3   20 1
     9    3   21 1
    10    3   22 1
    11    4    5 1
    12    4   23 1
    13    4   24 1
    14    5    6 2
    15    5    7 am
    16    7    8 1
    17    7   25 1
    18    8    9 1
    19    8   26 1
    20    8   27 1
    21    9   10 1
    22    9   28 1
    23    9   29 1
    24   10   11 2
    25   10   12 1
    26   13   14 1
    27   13   30 1
    28   13   31 1
    29   14   15 2
    30   14   16 1
@<TRIPOS>MOLECULE
ZINC04403025
   14    14     0     0     0
SMALL
USER_CHARGES
2,4-dinitrosobenzene-1,3-diol
@<TRIPOS>ATOM
      1 C1          3.0782    2.5787    1.2035 C.ar      1 <0>         0.0298
      2 C2          3.6897    2.9129    0.0349 C.ar      1 <0>        -0.3101
      3 C3          3.1009    2.6150   -1.1920 C.ar      1 <0>         0.3575
      4 C4          1.8052    1.9323   -1.2263 C.ar      1 <0>        -0.3255
      5 C5          1.1812    1.5909   -0.0007 C.ar      1 <0>         0.4297
      6 C6          1.8253    1.9242    1.2156 C.ar      1 <0>        -0.2894
      7 N1          1.2512    1.6161    2.3741 N.2       1 <0>        -0.2496
      8 O1          1.8026    1.9015    3.4220 O.2       1 <0>        -0.1869
      9 N2          1.2254    1.6390   -2.3853 N.2       1 <0>        -0.2693
     10 O2          1.7716    1.9376   -3.4323 O.2       1 <0>        -0.1279
     11 H1          3.5573    2.8221    2.1403 H         1 <0>         0.1094
     12 H2          4.6448    3.4166    0.0588 H         1 <0>         0.0991
     13 O3         -0.0110    0.9628    0.0073 O.3       1 <0>        -0.6463
     14 O4          3.7209    2.9531   -2.3426 O.3       1 <0>        -0.6205
@<TRIPOS>BOND
     1    1    6 ar
     2    1    2 ar
     3    1   11 1
     4    2    3 ar
     5    2   12 1
     6    3    4 ar
     7    3   14 1
     8    4    5 ar
     9    4    9 1
    10    5    6 ar
    11    5   13 1
    12    6    7 1
    13    7    8 2
    14    9   10 2
@<TRIPOS>MOLECULE
ZINC15722539
   36    37     0     0     0
SMALL
USER_CHARGES
(5Z)-1-allyl-5-[(4-hydroxy-3-methoxy-5-nitro-phenyl)methylene]-2-thioxo-hexahydropyrimidine-4,6-dione
@<TRIPOS>ATOM
      1 C1         -2.6187    3.6054    1.9596 C.3       1 <0>         0.0275
      2 O1         -3.8375    3.0398    1.4732 O.3       1 <0>        -0.2994
      3 C2         -3.7567    1.8224    0.8726 C.ar      1 <0>         0.0007
      4 C3         -2.5368    1.1884    0.7613 C.ar      1 <0>        -0.0575
      5 C4         -2.4570   -0.0655    0.1365 C.ar      1 <0>        -0.1876
      6 C5         -3.6209   -0.6711   -0.3610 C.ar      1 <0>         0.0063
      7 C6         -4.8332   -0.0321   -0.2398 C.ar      1 <0>        -0.1976
      8 C7         -4.9093    1.2124    0.3747 C.ar      1 <0>         0.3292
      9 O2         -6.1087    1.8369    0.4907 O.3       1 <0>        -0.6169
     10 N1         -6.0603   -0.6720   -0.7650 N.pl3     1 <0>         0.0766
     11 O3         -5.9957   -1.7626   -1.3035 O.2       1 <0>        -0.2676
     12 O4         -7.1346   -0.1079   -0.6588 O.3       1 <0>        -0.1740
     13 C8         -1.1660   -0.7416    0.0097 C.2       1 <0>         0.1085
     14 C9         -0.0582   -0.0393   -0.4240 C.2       1 <0>        -0.3205
     15 C10         1.2978   -0.6196   -0.3564 C.2       1 <0>         0.5373
     16 O5          1.4774   -1.7386    0.0855 O.3       1 <0>        -0.5336
     17 N2          2.3320    0.1255   -0.7980 N.2       1 <0>        -0.6369
     18 C11         2.1484    1.3597   -1.2873 C.2       1 <0>         0.5564
     19 S1          3.5213    2.2302   -1.8241 S.2       1 <0>        -0.7291
     20 N3          0.9485    1.9497   -1.3783 N.am      1 <0>        -0.5429
     21 C12        -0.1774    1.3253   -0.9752 C.2       1 <0>         0.5498
     22 O6         -1.2613    1.8695   -1.0679 O.2       1 <0>        -0.4901
     23 C13         0.8573    3.3042   -1.9289 C.3       1 <0>         0.1215
     24 C14         0.9926    4.3096   -0.8145 C.2       1 <0>        -0.1613
     25 C15         1.9089    5.2434   -0.8824 C.2       1 <0>        -0.1648
     26 H1         -2.8258    4.5834    2.4186 H         1 <0>         0.0881
     27 H2         -1.9151    3.7342    1.1239 H         1 <0>         0.0498
     28 H3         -2.1770    2.9340    2.7107 H         1 <0>         0.0419
     29 H4         -1.6452    1.6574    1.1505 H         1 <0>         0.1127
     30 H5         -3.5651   -1.6383   -0.8383 H         1 <0>         0.1279
     31 H6         -1.0773   -1.8091    0.2597 H         1 <0>         0.1438
     32 H7          1.6639    3.4575   -2.6610 H         1 <0>         0.1205
     33 H8         -0.1165    3.4341   -2.4237 H         1 <0>         0.0861
     34 H9          0.3219    4.2594    0.0560 H         1 <0>         0.0985
     35 H10         2.0076    5.9773   -0.0690 H         1 <0>         0.0900
     36 H11         2.5796    5.2936   -1.7529 H         1 <0>         0.1066
@<TRIPOS>BOND
     1    1    2 1
     2    1   26 1
     3    1   27 1
     4    1   28 1
     5    2    3 1
     6    3    8 ar
     7    3    4 ar
     8    4    5 ar
     9    4   29 1
    10    5    6 ar
    11    5   13 1
    12    6    7 ar
    13    6   30 1
    14    7    8 ar
    15    7   10 1
    16    8    9 1
    17   10   11 2
    18   10   12 1
    19   13   14 2
    20   13   31 1
    21   14   21 1
    22   14   15 1
    23   15   16 1
    24   15   17 2
    25   17   18 1
    26   18   19 2
    27   18   20 1
    28   20   21 am
    29   20   23 1
    30   21   22 2
    31   23   24 1
    32   23   32 1
    33   23   33 1
    34   24   25 2
    35   24   34 1
    36   25   35 1
    37   25   36 1
@<TRIPOS>MOLECULE
ZINC16384313
   30    32     0     0     0
SMALL
USER_CHARGES

@<TRIPOS>ATOM
      1 C1         -0.0169    1.3966    0.0097 C.ar      1 <0>        -0.0145
      2 C2          1.1636    2.1059    0.0023 C.ar      1 <0>        -0.2394
      3 C3          2.3810    1.4388   -0.0134 C.ar      1 <0>         0.3427
      4 C4          2.4134    0.0354   -0.0218 C.ar      1 <0>        -0.1897
      5 C5          1.2208   -0.6843   -0.0138 C.ar      1 <0>         0.0756
      6 C6          0.0021   -0.0041    0.0020 C.ar      1 <0>        -0.0753
      7 N1         -1.1696   -0.7027    0.0099 N.2       1 <0>        -0.1625
      8 N2         -2.2957   -0.0736    0.0245 N.2       1 <0>        -0.2703
      9 C7         -3.4519   -0.7630    0.0323 C.2       1 <0>        -0.0017
     10 C8         -4.7724   -0.2544    0.0424 C.ar      1 <0>        -0.1644
     11 C9         -5.2082    1.0905    0.0470 C.ar      1 <0>         0.0627
     12 C10        -6.5344    1.3767    0.0564 C.ar      1 <0>        -0.6888
     13 C11        -7.4928    0.3645    0.0622 C.ar      1 <0>        -0.0013
     14 C12        -7.1435   -0.9430    0.0587 C.ar      1 <0>        -0.1411
     15 C13        -5.7694   -1.3185    0.0479 C.ar      1 <0>         0.1477
     16 N3         -5.2674   -2.5528    0.0425 N.2       1 <0>        -0.5564
     17 S1         -3.6651   -2.4212    0.0250 S.3       1 <0>         0.4178
     18 S2         -7.0551    3.0599    0.0621 S.o2      1 <0>         2.7009
     19 O1         -8.3268    3.1063    0.7669 O.2       1 <0>        -1.0682
     20 O2         -6.0236    3.8189    0.7520 O.2       1 <0>        -1.0627
     21 O3         -7.1895    3.4652   -1.3285 O.3       1 <0>        -1.0657
     22 C14         3.6684   -0.6541   -0.0389 C.1       1 <0>         0.3062
     23 N4          4.6640   -1.2010   -0.0525 N.1       1 <0>        -0.4849
     24 O4          3.5398    2.1435   -0.0212 O.3       1 <0>        -0.6547
     25 H1         -0.9604    1.9219    0.0261 H         1 <0>         0.1320
     26 H2          1.1421    3.1857    0.0083 H         1 <0>         0.1228
     27 H3          1.2390   -1.7641   -0.0205 H         1 <0>         0.1280
     28 H4         -4.4840    1.8917    0.0434 H         1 <0>         0.1422
     29 H5         -8.5396    0.6302    0.0701 H         1 <0>         0.1354
     30 H6         -7.9093   -1.7045    0.0637 H         1 <0>         0.1276
@<TRIPOS>BOND
     1    1    6 ar
     2    1    2 ar
     3    1   25 1
     4    2    3 ar
     5    2   26 1
     6    3    4 ar
     7    3   24 1
     8    4    5 ar
     9    4   22 1
    10    5    6 ar
    11    5   27 1
    12    6    7 1
    13    7    8 2
    14    8    9 1
    15    9   17 1
    16    9   10 2
    17   10   15 ar
    18   10   11 ar
    19   11   12 ar
    20   11   28 1
    21   12   13 ar
    22   12   18 1
    23   13   14 ar
    24   13   29 1
    25   14   15 ar
    26   14   30 1
    27   15   16 2
    28   16   17 1
    29   18   19 2
    30   18   20 2
    31   18   21 1
    32   22   23 3
@<TRIPOS>MOLECULE
ZINC02504963
   22    22     0     0     0
SMALL
USER_CHARGES

@<TRIPOS>ATOM
      1 C1         -0.0169    1.3955    0.0097 C.ar      1 <0>        -0.0197
      2 C2          1.1681    2.0979    0.0022 C.ar      1 <0>        -0.1602
      3 C3          2.3797    1.4258   -0.0135 C.ar      1 <0>         0.0564
      4 C4          2.4144    0.0448   -0.0212 C.ar      1 <0>        -0.1928
      5 C5          1.2335   -0.6805   -0.0138 C.ar      1 <0>         0.3374
      6 C6          0.0021   -0.0041    0.0020 C.ar      1 <0>        -0.1365
      7 C7         -1.2562   -0.7601    0.0105 C.2       1 <0>        -0.0595
      8 C8         -2.4399   -0.1040    0.0257 C.2       1 <0>        -0.2081
      9 C9         -3.6514   -0.8320    0.0339 C.2       1 <0>         0.5085
     10 O1         -3.6300   -2.0570    0.0271 O.co2     1 <0>        -0.6991
     11 O2         -4.7230   -0.2380    0.0477 O.co2     1 <0>        -0.7124
     12 O3          1.2663   -2.0366   -0.0219 O.3       1 <0>        -0.5829
     13 N1          3.7151   -0.6616   -0.0379 N.pl3     1 <0>         0.0719
     14 O4          4.7459   -0.0299   -0.0448 O.2       1 <0>        -0.2469
     15 O5          3.7466   -1.8701   -0.0447 O.3       1 <0>        -0.1467
     16 N2          1.1469    3.5779    0.0103 N.pl3     1 <0>         0.0703
     17 O6          0.0914    4.1673    0.0236 O.2       1 <0>        -0.1966
     18 O7          2.1852    4.1973    0.0037 O.3       1 <0>        -0.2120
     19 H1         -0.9588    1.9237    0.0260 H         1 <0>         0.1468
     20 H2          3.3034    1.9855   -0.0200 H         1 <0>         0.1500
     21 H3         -1.2374   -1.8400    0.0045 H         1 <0>         0.1364
     22 H4         -2.4587    0.9758    0.0317 H         1 <0>         0.0954
@<TRIPOS>BOND
     1    1    6 ar
     2    1    2 ar
     3    1   19 1
     4    2    3 ar
     5    2   16 1
     6    3    4 ar
     7    3   20 1
     8    4    5 ar
     9    4   13 1
    10    5    6 ar
    11    5   12 1
    12    6    7 1
    13    7    8 2
    14    7   21 1
    15    8    9 1
    16    8   22 1
    17    9   10 2
    18    9   11 1
    19   13   14 2
    20   13   15 1
    21   16   17 2
    22   16   18 1
@<TRIPOS>MOLECULE
ZINC19766947
   39    41     0     0     0
SMALL
USER_CHARGES

@<TRIPOS>ATOM
      1 C1         -0.0162    1.3913    0.0115 C.ar      1 <0>        -0.0288
      2 C2          0.4251    0.7220    1.1523 C.ar      1 <0>        -0.1500
      3 C3          1.6438    0.0382    1.1315 C.ar      1 <0>        -0.0635
      4 C4          2.4140    0.0252   -0.0213 C.ar      1 <0>         0.0478
      5 C5          1.9789    0.6894   -1.1579 C.ar      1 <0>        -0.0634
      6 C6          0.7613    1.3752   -1.1459 C.ar      1 <0>        -0.1499
      7 C7          0.2990    2.0815   -2.3564 C.2       1 <0>         0.5294
      8 O1         -0.7666    2.6813   -2.3449 O.co2     1 <0>        -0.6849
      9 O2          0.9815    2.0669   -3.3710 O.co2     1 <0>        -0.6987
     10 N1          3.6369   -0.6615   -0.0376 N.am      1 <0>        -0.5091
     11 C8          4.8170   -0.0373   -0.1385 C.2       1 <0>         0.5173
     12 O3          4.9719    1.1619   -0.2252 O.2       1 <0>        -0.4650
     13 C9          5.9268   -1.0658   -0.1264 C.3       1 <0>        -0.1471
     14 C10         5.1755   -2.4068    0.0002 C.3       1 <0>         0.0527
     15 H1          5.4584   -2.9197    0.9194 H         1 <0>         0.1354
     16 C11         3.7205   -1.9946    0.0521 C.2       1 <0>         0.4909
     17 O4          2.7794   -2.7518    0.1557 O.2       1 <0>        -0.4626
     18 N2          5.4382   -3.2588   -1.1673 N.3       1 <0>        -0.5021
     19 C12         4.9683   -2.6175   -2.4040 C.3       1 <0>        -0.0056
     20 C13         5.3147   -3.5100   -3.5987 C.3       1 <0>         0.0715
     21 O5          4.7349   -4.8030   -3.4053 O.3       1 <0>        -0.3839
     22 C14         5.1711   -5.4567   -2.2103 C.3       1 <0>         0.0682
     23 C15         4.8233   -4.5839   -1.0016 C.3       1 <0>         0.0015
     24 C16        -0.3934    0.7360    2.3802 C.2       1 <0>         0.5293
     25 O6         -1.4595    1.3349    2.3976 O.co2     1 <0>        -0.6850
     26 O7         -0.0056    0.1487    3.3803 O.co2     1 <0>        -0.6991
     27 H2         -0.9596    1.9169    0.0229 H         1 <0>         0.1380
     28 H3          1.9863   -0.4804    2.0147 H         1 <0>         0.1191
     29 H4          2.5819    0.6768   -2.0539 H         1 <0>         0.1186
     30 H5          6.4932   -1.0298   -1.0570 H         1 <0>         0.1264
     31 H6          6.5834   -0.9116    0.7298 H         1 <0>         0.1252
     32 H7          3.8884   -2.4787   -2.3543 H         1 <0>         0.0556
     33 H8          5.4555   -1.6493   -2.5197 H         1 <0>         0.0930
     34 H9          4.9179   -3.0661   -4.5117 H         1 <0>         0.1022
     35 H10         6.3974   -3.6052   -3.6802 H         1 <0>         0.0607
     36 H11         4.6705   -6.4206   -2.1193 H         1 <0>         0.0980
     37 H12         6.2497   -5.6084   -2.2515 H         1 <0>         0.0575
     38 H13         5.2046   -5.0510   -0.0936 H         1 <0>         0.0904
     39 H14         3.7410   -4.4764   -0.9295 H         1 <0>         0.0698
@<TRIPOS>BOND
     1    1    6 ar
     2    1    2 ar
     3    1   27 1
     4    2    3 ar
     5    2   24 1
     6    3    4 ar
     7    3   28 1
     8    4    5 ar
     9    4   10 1
    10    5    6 ar
    11    5   29 1
    12    6    7 1
    13    7    8 2
    14    7    9 1
    15   10   16 am
    16   10   11 am
    17   11   12 2
    18   11   13 1
    19   13   14 1
    20   13   30 1
    21   13   31 1
    22   14   15 1
    23   14   16 1
    24   14   18 1
    25   16   17 2
    26   18   23 1
    27   18   19 1
    28   19   20 1
    29   19   32 1
    30   19   33 1
    31   20   21 1
    32   20   34 1
    33   20   35 1
    34   21   22 1
    35   22   23 1
    36   22   36 1
    37   22   37 1
    38   23   38 1
    39   23   39 1
    40   24   25 2
    41   24   26 1
@<TRIPOS>MOLECULE
ZINC19229874
   39    39     0     0     0
SMALL
USER_CHARGES

@<TRIPOS>ATOM
      1 C1          1.1657   -0.8632   -2.1344 C.3       1 <0>        -0.1481
      2 C2          0.5226   -1.0668   -0.7611 C.3       1 <0>         0.0578
      3 O1         -0.7850   -1.6193   -0.9247 O.3       1 <0>        -0.3165
      4 C3         -1.4928   -1.8616    0.1985 C.2       1 <0>         0.5551
      5 O2         -1.0111   -1.6098    1.2872 O.2       1 <0>        -0.5288
      6 C4         -2.7941   -2.4080    0.1102 C.2       1 <0>        -0.1669
      7 C5         -2.9404   -3.7296   -0.0866 C.2       1 <0>         0.1325
      8 N1         -4.1848   -4.2923   -0.1694 N.pl3     1 <0>        -0.6341
      9 C6         -5.2801   -3.6166    0.2953 C.2       1 <0>         0.2008
     10 C7         -5.2316   -2.2902    0.5081 C.2       1 <0>        -0.2081
     11 C8         -3.9832   -1.4997    0.2446 C.3       1 <0>        -0.0456
     12 C9         -4.1576   -0.7183   -1.0322 C.2       1 <0>         0.5015
     13 O3         -5.2700   -0.3628   -1.3823 O.co2     1 <0>        -0.6813
     14 O4         -3.1861   -0.4417   -1.7151 O.co2     1 <0>        -0.6814
     15 C10        -6.3805   -1.6254    0.9957 C.2       1 <0>         0.5417
     16 O5         -7.3986   -2.2537    1.2181 O.2       1 <0>        -0.5504
     17 O6         -6.3478   -0.2941    1.2145 O.3       1 <0>        -0.3254
     18 C11        -7.5443    0.3119    1.7075 C.3       1 <0>         0.0660
     19 C12        -7.3167    1.8135    1.8924 C.3       1 <0>        -0.1499
     20 C13        -6.5566   -4.3685    0.5713 C.3       1 <0>        -0.1014
     21 C14        -1.7188   -4.6022   -0.2182 C.3       1 <0>        -0.1185
     22 H1          2.1632   -0.4417   -2.0096 H         1 <0>         0.0701
     23 H2          1.2381   -1.8221   -2.6474 H         1 <0>         0.0612
     24 H3          0.5541   -0.1806   -2.7244 H         1 <0>         0.0714
     25 H4          1.1342   -1.7493   -0.1711 H         1 <0>         0.0563
     26 H5          0.4502   -0.1078   -0.2480 H         1 <0>         0.0623
     27 H6         -4.2911   -5.1740   -0.5595 H         1 <0>         0.4117
     28 H7         -3.8141   -0.8064    1.0685 H         1 <0>         0.0761
     29 H8         -8.3530    0.1520    0.9944 H         1 <0>         0.0609
     30 H9         -7.8104   -0.1358    2.6651 H         1 <0>         0.0550
     31 H10        -8.2294    2.2758    2.2684 H         1 <0>         0.0698
     32 H11        -6.5080    1.9734    2.6055 H         1 <0>         0.0612
     33 H12        -7.0506    2.2612    0.9348 H         1 <0>         0.0695
     34 H13        -6.4126   -5.4247    0.3435 H         1 <0>         0.0517
     35 H14        -6.8241   -4.2567    1.6221 H         1 <0>         0.0934
     36 H15        -7.3562   -3.9681   -0.0518 H         1 <0>         0.0945
     37 H16        -1.4266   -4.9690    0.7658 H         1 <0>         0.0785
     38 H17        -1.9442   -5.4473   -0.8687 H         1 <0>         0.0747
     39 H18        -0.9019   -4.0216   -0.6468 H         1 <0>         0.0829
@<TRIPOS>BOND
     1    1    2 1
     2    1   22 1
     3    1   23 1
     4    1   24 1
     5    2    3 1
     6    2   25 1
     7    2   26 1
     8    3    4 1
     9    4    5 2
    10    4    6 1
    11    6   11 1
    12    6    7 2
    13    7    8 1
    14    7   21 1
    15    8    9 1
    16    8   27 1
    17    9   10 2
    18    9   20 1
    19   10   11 1
    20   10   15 1
    21   11   12 1
    22   11   28 1
    23   12   13 2
    24   12   14 1
    25   15   16 2
    26   15   17 1
    27   17   18 1
    28   18   19 1
    29   18   29 1
    30   18   30 1
    31   19   31 1
    32   19   32 1
    33   19   33 1
    34   20   34 1
    35   20   35 1
    36   20   36 1
    37   21   37 1
    38   21   38 1
    39   21   39 1
@<TRIPOS>MOLECULE
ZINC16932255
   36    37     0     0     0
SMALL
USER_CHARGES
(2R)-2-[(5Z)-5-[(3,4-dihydroxyphenyl)methylene]-4-oxo-2-thioxo-thiazolidin-3-yl]pentanedioic acid
@<TRIPOS>ATOM
      1 C1         -2.4046    1.5620   -0.4608 C.ar      1 <0>        -0.0817
      2 C2         -3.4912    2.4078   -0.4106 C.ar      1 <0>        -0.1332
      3 C3         -3.3680    3.6693    0.1554 C.ar      1 <0>         0.0876
      4 C4         -2.1441    4.0881    0.6769 C.ar      1 <0>         0.0905
      5 C5         -1.0511    3.2457    0.6359 C.ar      1 <0>        -0.1103
      6 C6         -1.1725    1.9747    0.0600 C.ar      1 <0>        -0.0597
      7 C7         -0.0126    1.0758    0.0080 C.2       1 <0>         0.0255
      8 C8          1.2176    1.5345    0.3530 C.2       1 <0>        -0.1865
      9 C9          2.4853    0.7957    0.5188 C.2       1 <0>         0.5416
     10 O1          2.5517   -0.4071    0.3449 O.2       1 <0>        -0.4705
     11 N1          3.5448    1.5070    0.8655 N.am      1 <0>        -0.4844
     12 C10         3.4668    2.8397    1.0568 C.2       1 <0>         0.2754
     13 S1          4.7137    3.9244    1.5035 S.2       1 <0>        -0.2618
     14 S2          1.7500    3.2002    0.7238 S.3       1 <0>         0.0132
     15 C11         4.8323    0.8320    1.0463 C.3       1 <0>         0.0658
     16 H1          4.7138   -0.2342    0.8533 H         1 <0>         0.1104
     17 C12         5.3199    1.0395    2.4816 C.3       1 <0>        -0.1068
     18 C13         4.3601    0.3470    3.4513 C.3       1 <0>        -0.1526
     19 C14         4.8403    0.5514    4.8651 C.2       1 <0>         0.4651
     20 O2          5.8469    1.1858    5.0755 O.co2     1 <0>        -0.6308
     21 C15         5.8405    1.4074    0.0852 C.2       1 <0>         0.4792
     22 O3          5.5167    2.2907   -0.6729 O.co2     1 <0>        -0.6232
     23 O4         -2.0287    5.3248    1.2307 O.3       1 <0>        -0.4835
     24 O5         -4.4431    4.4985    0.2019 O.3       1 <0>        -0.4878
     25 H2         -2.5033    0.5812   -0.9021 H         1 <0>         0.1399
     26 H3         -4.4414    2.0883   -0.8123 H         1 <0>         0.1370
     27 H4         -0.1040    3.5672    1.0435 H         1 <0>         0.1489
     28 H5         -0.1374    0.0510   -0.3090 H         1 <0>         0.1617
     29 H6          6.3173    0.6139    2.5916 H         1 <0>         0.0929
     30 H7          5.3535    2.1062    2.7033 H         1 <0>         0.0944
     31 H8          3.3627    0.7726    3.3413 H         1 <0>         0.0435
     32 H9          4.3265   -0.7197    3.2296 H         1 <0>         0.0597
     33 H10        -2.2174    5.3503    2.1788 H         1 <0>         0.3895
     34 H11        -4.9763    4.4067    1.0034 H         1 <0>         0.3866
     35 O6          4.1498    0.0286    5.8906 O.co2     1 <0>        -0.7895
     36 O7          7.0982    0.9386    0.0714 O.co2     1 <0>        -0.7463
@<TRIPOS>BOND
     1    1    6 ar
     2    1    2 ar
     3    1   25 1
     4    2    3 ar
     5    2   26 1
     6    3    4 ar
     7    3   24 1
     8    4    5 ar
     9    4   23 1
    10    5    6 ar
    11    5   27 1
    12    6    7 1
    13    7    8 2
    14    7   28 1
    15    8   14 1
    16    8    9 1
    17    9   10 2
    18    9   11 am
    19   11   12 1
    20   11   15 1
    21   12   13 2
    22   12   14 1
    23   15   16 1
    24   15   17 1
    25   15   21 1
    26   17   18 1
    27   17   29 1
    28   17   30 1
    29   18   19 1
    30   18   31 1
    31   18   32 1
    32   19   20 2
    33   19   35 1
    34   21   22 2
    35   21   36 1
    36   23   33 1
    37   24   34 1
@<TRIPOS>MOLECULE
ZINC37561409
   36    37     0     0     0
SMALL
USER_CHARGES

@<TRIPOS>ATOM
      1 C1         -0.0170    1.4030    0.0098 C.2       1 <0>        -0.0864
      2 C2          1.1546    2.0937    0.0023 C.2       1 <0>        -0.2023
      3 C3          2.3730    1.3848   -0.0132 C.2       1 <0>         0.4905
      4 O1          3.4350    1.9872   -0.0197 O.2       1 <0>        -0.6030
      5 N1          2.3570    0.0367   -0.0202 N.am      1 <0>        -0.3825
      6 N2          1.1392   -0.6532   -0.0123 N.2       1 <0>        -0.3744
      7 C4          0.0021   -0.0041    0.0020 C.2       1 <0>         0.3566
      8 O2         -1.1678   -0.6940    0.0095 O.3       1 <0>        -0.7256
      9 C5          3.6182   -0.7085   -0.0368 C.3       1 <0>         0.1233
     10 C6          4.0648   -0.9716    1.3783 C.2       1 <0>         0.5008
     11 O3          3.3954   -0.5757    2.3089 O.2       1 <0>        -0.5195
     12 N3          5.2080   -1.6469    1.6096 N.am      1 <0>        -0.7309
     13 C7          5.6421   -1.9027    2.9852 C.3       1 <0>         0.1485
     14 C8          4.9607   -3.1689    3.5079 C.3       1 <0>        -0.1258
     15 C9          5.4141   -3.4361    4.9446 C.3       1 <0>        -0.0910
     16 C10         6.9321   -3.6248    4.9735 C.3       1 <0>        -0.1526
     17 C11         7.6136   -2.3586    4.4508 C.3       1 <0>        -0.0915
     18 C12         7.1602   -2.0915    3.0142 C.3       1 <0>        -0.1192
     19 C13         7.3787   -3.8879    6.3886 C.2       1 <0>         0.4971
     20 O4          8.2448   -4.7169    6.6103 O.co2     1 <0>        -0.7105
     21 O5          6.8739   -3.2719    7.3117 O.co2     1 <0>        -0.6977
     22 H1         -0.9583    1.9323    0.0261 H         1 <0>         0.1219
     23 H2          1.1516    3.1737    0.0078 H         1 <0>         0.1359
     24 H3          3.4732   -1.6568   -0.5543 H         1 <0>         0.1108
     25 H4          4.3786   -0.1243   -0.5551 H         1 <0>         0.1105
     26 H5          5.7433   -1.9635    0.8652 H         1 <0>         0.3940
     27 H6          5.3691   -1.0565    3.6157 H         1 <0>         0.0848
     28 H7          3.8792   -3.0344    3.4873 H         1 <0>         0.0621
     29 H8          5.2337   -4.0151    2.8775 H         1 <0>         0.0557
     30 H9          5.1411   -2.5898    5.5750 H         1 <0>         0.0673
     31 H10         4.9286   -4.3381    5.3170 H         1 <0>         0.0525
     32 H11         7.2051   -4.4710    4.3431 H         1 <0>         0.0580
     33 H12         7.3405   -1.5124    5.0813 H         1 <0>         0.0621
     34 H13         8.6950   -2.4931    4.4714 H         1 <0>         0.0579
     35 H14         7.4332   -2.9377    2.3837 H         1 <0>         0.0619
     36 H15         7.6456   -1.1894    2.6418 H         1 <0>         0.0604
@<TRIPOS>BOND
     1    1    7 1
     2    1    2 2
     3    1   22 1
     4    2    3 1
     5    2   23 1
     6    3    4 2
     7    3    5 am
     8    5    6 1
     9    5    9 1
    10    6    7 2
    11    7    8 1
    12    9   10 1
    13    9   24 1
    14    9   25 1
    15   10   11 2
    16   10   12 am
    17   12   13 1
    18   12   26 1
    19   13   18 1
    20   13   14 1
    21   13   27 1
    22   14   15 1
    23   14   28 1
    24   14   29 1
    25   15   16 1
    26   15   30 1
    27   15   31 1
    28   16   17 1
    29   16   19 1
    30   16   32 1
    31   17   18 1
    32   17   33 1
    33   17   34 1
    34   18   35 1
    35   18   36 1
    36   19   20 2
    37   19   21 1
@<TRIPOS>MOLECULE
ZINC39861994
   35    36     0     0     0
SMALL
USER_CHARGES

@<TRIPOS>ATOM
      1 C1          0.0546    1.3533    0.0466 C.ar      1 <0>        -0.0967
      2 C2          1.2138    2.0308    0.2954 C.ar      1 <0>        -0.0943
      3 C3          2.3338    1.3470    0.7811 C.ar      1 <0>        -0.1077
      4 C4          2.2671   -0.0313    1.0121 C.ar      1 <0>        -0.0859
      5 C5          1.1087   -0.7104    0.7637 C.ar      1 <0>        -0.1030
      6 C6         -0.0130   -0.0266    0.2776 C.ar      1 <0>        -0.1058
      7 C7         -1.2599   -0.7563    0.0105 C.2       1 <0>         0.0722
      8 C8         -1.2444   -2.1081   -0.0993 C.2       1 <0>        -0.2303
      9 C9         -2.3741   -3.0592   -0.2201 C.2       1 <0>         0.5538
     10 O1         -3.5302   -2.6816   -0.2335 O.2       1 <0>        -0.4639
     11 N1         -2.0591   -4.3402   -0.3131 N.am      1 <0>        -0.4841
     12 C10        -0.7760   -4.7541   -0.2979 C.2       1 <0>         0.2870
     13 S1         -0.1744   -6.3533   -0.4060 S.2       1 <0>        -0.3315
     14 S2          0.1450   -3.2320   -0.1459 S.3       1 <0>         0.0358
     15 C11        -3.1294   -5.3330   -0.4351 C.3       1 <0>         0.0624
     16 H1         -4.0955   -4.8282   -0.4304 H         1 <0>         0.1122
     17 C12        -3.0576   -6.3077    0.7421 C.3       1 <0>        -0.1573
     18 C13        -3.3433   -5.5689    2.0241 C.2       1 <0>         0.5098
     19 O2         -3.5810   -4.3799    1.9987 O.2       1 <0>        -0.5356
     20 N2         -3.3347   -6.2295    3.1988 N.am      1 <0>        -0.8595
     21 C14        -2.9656   -6.0922   -1.7266 C.2       1 <0>         0.5023
     22 O3         -1.9488   -5.9606   -2.3863 O.co2     1 <0>        -0.6518
     23 O4         -3.8500   -6.8380   -2.1117 O.co2     1 <0>        -0.6847
     24 C15         3.5848    2.0792    1.0490 C.2       1 <0>         0.5188
     25 O5          3.6436    3.2841    0.8468 O.co2     1 <0>        -0.6867
     26 O6          4.5641    1.4818    1.4735 O.co2     1 <0>        -0.6831
     27 H2         -0.8111    1.8820   -0.3241 H         1 <0>         0.1237
     28 H3          1.2662    3.0947    0.1171 H         1 <0>         0.1316
     29 H4          3.1321   -0.5584    1.3866 H         1 <0>         0.1335
     30 H5          1.0575   -1.7744    0.9417 H         1 <0>         0.1283
     31 H6         -2.1888   -0.2163   -0.0984 H         1 <0>         0.1535
     32 H7         -3.7964   -7.0974    0.6055 H         1 <0>         0.1150
     33 H8         -2.0611   -6.7467    0.7900 H         1 <0>         0.1276
     34 H9         -3.1446   -7.1805    3.2191 H         1 <0>         0.3997
     35 H10        -3.5186   -5.7539    4.0240 H         1 <0>         0.3946
@<TRIPOS>BOND
     1    1    6 ar
     2    1    2 ar
     3    1   27 1
     4    2    3 ar
     5    2   28 1
     6    3    4 ar
     7    3   24 1
     8    4    5 ar
     9    4   29 1
    10    5    6 ar
    11    5   30 1
    12    6    7 1
    13    7    8 2
    14    7   31 1
    15    8   14 1
    16    8    9 1
    17    9   10 2
    18    9   11 am
    19   11   12 1
    20   11   15 1
    21   12   13 2
    22   12   14 1
    23   15   16 1
    24   15   17 1
    25   15   21 1
    26   17   18 1
    27   17   32 1
    28   17   33 1
    29   18   19 2
    30   18   20 am
    31   20   34 1
    32   20   35 1
    33   21   22 2
    34   21   23 1
    35   24   25 2
    36   24   26 1
@<TRIPOS>MOLECULE
ZINC45047450
   40    40     0     0     0
SMALL
USER_CHARGES

@<TRIPOS>ATOM
      1 C1         -0.0187    1.5258    0.0104 C.3       1 <0>        -0.1629
      2 C2          0.0021   -0.0041    0.0020 C.3       1 <0>         0.2011
      3 C3          0.7182   -0.4975   -1.2568 C.3       1 <0>        -0.1295
      4 C4          0.7390   -2.0273   -1.2652 C.3       1 <0>        -0.1175
      5 C5          1.4790   -2.5342   -0.0257 C.3       1 <0>        -0.1147
      6 C6          0.7628   -2.0407    1.2331 C.3       1 <0>        -0.1198
      7 C7          0.7421   -0.5109    1.2415 C.3       1 <0>        -0.1178
      8 N1         -1.3723   -0.5112    0.0124 N.am      1 <0>        -0.7469
      9 C8         -2.2162   -0.1915   -0.9887 C.2       1 <0>         0.7128
     10 O1         -1.8367    0.5178   -1.9005 O.2       1 <0>        -0.5985
     11 N2         -3.4806   -0.6580   -0.9791 N.am      1 <0>        -0.7038
     12 C9         -4.3978   -0.3105   -2.0673 C.3       1 <0>         0.0934
     13 H1         -3.8438   -0.2499   -3.0041 H         1 <0>         0.0741
     14 C10        -5.4810   -1.3847   -2.1840 C.3       1 <0>        -0.0800
     15 C11        -4.8415   -2.7105   -2.6014 C.3       1 <0>        -0.1749
     16 C12        -5.9084   -3.7686   -2.7163 C.2       1 <0>         0.4903
     17 O2         -7.0723   -3.4883   -2.4857 O.co2     1 <0>        -0.6976
     18 O3         -5.6076   -4.9050   -3.0399 O.co2     1 <0>        -0.7217
     19 C13        -5.0404    1.0213   -1.7767 C.2       1 <0>         0.4940
     20 O4         -4.7583    1.6243   -0.7552 O.co2     1 <0>        -0.6984
     21 O5         -5.8423    1.4958   -2.5630 O.co2     1 <0>        -0.7049
     22 H2          1.0039    1.9031    0.0027 H         1 <0>         0.0486
     23 H3         -0.5459    1.8868   -0.8726 H         1 <0>         0.0857
     24 H4         -0.5289    1.8773    0.9072 H         1 <0>         0.0506
     25 H5          0.1910   -0.1364   -2.1398 H         1 <0>         0.0904
     26 H6          1.7408   -0.1202   -1.2645 H         1 <0>         0.0562
     27 H7         -0.2836   -2.4046   -1.2575 H         1 <0>         0.0670
     28 H8          1.2492   -2.3788   -2.1620 H         1 <0>         0.0546
     29 H9          1.4937   -3.6240   -0.0317 H         1 <0>         0.0559
     30 H10         2.5015   -2.1569   -0.0334 H         1 <0>         0.0551
     31 H11        -0.2598   -2.4180    1.2409 H         1 <0>         0.0647
     32 H12         1.2900   -2.4018    2.1162 H         1 <0>         0.0571
     33 H13         1.7647   -0.1336    1.2338 H         1 <0>         0.0710
     34 H14         0.2319   -0.1594    2.1383 H         1 <0>         0.0650
     35 H15        -1.6750   -1.0770    0.7398 H         1 <0>         0.3865
     36 H16        -3.7833   -1.2238   -0.2517 H         1 <0>         0.3837
     37 H17        -5.9761   -1.5075   -1.2207 H         1 <0>         0.0532
     38 H18        -6.2131   -1.0827   -2.9329 H         1 <0>         0.0771
     39 H19        -4.3464   -2.5877   -3.5647 H         1 <0>         0.0508
     40 H20        -4.1094   -3.0125   -1.8525 H         1 <0>         0.0496
@<TRIPOS>BOND
     1    1    2 1
     2    1   22 1
     3    1   23 1
     4    1   24 1
     5    2    7 1
     6    2    3 1
     7    2    8 1
     8    3    4 1
     9    3   25 1
    10    3   26 1
    11    4    5 1
    12    4   27 1
    13    4   28 1
    14    5    6 1
    15    5   29 1
    16    5   30 1
    17    6    7 1
    18    6   31 1
    19    6   32 1
    20    7   33 1
    21    7   34 1
    22    8    9 am
    23    8   35 1
    24    9   10 2
    25    9   11 am
    26   11   12 1
    27   11   36 1
    28   12   13 1
    29   12   14 1
    30   12   19 1
    31   14   15 1
    32   14   37 1
    33   14   38 1
    34   15   16 1
    35   15   39 1
    36   15   40 1
    37   16   17 2
    38   16   18 1
    39   19   20 2
    40   19   21 1
@<TRIPOS>MOLECULE
ZINC39470808
   26    27     0     0     0
SMALL
USER_CHARGES

@<TRIPOS>ATOM
      1 C1          0.0042    1.4242   -0.2864 C.ar      1 <0>        -0.1305
      2 C2          1.1343    2.1555   -0.2168 C.ar      1 <0>        -0.0346
      3 C3          2.4349    1.4849   -0.1059 C.ar      1 <0>        -0.2008
      4 C4          3.6995    1.9626   -0.0215 C.2       1 <0>         0.1458
      5 C5          4.5995    0.7510    0.0703 C.3       1 <0>         0.0173
      6 H1          5.2877    0.7293   -0.7747 H         1 <0>         0.1669
      7 N1          3.7099   -0.4146    0.0280 N.pl3     1 <0>        -0.5573
      8 C6          2.4740    0.0063   -0.0726 C.ar      1 <0>         0.3080
      9 C7          1.2026   -0.7234   -0.1528 C.ar      1 <0>        -0.1693
     10 C8          0.0318   -0.0318   -0.2544 C.ar      1 <0>        -0.0124
     11 C9         -1.2416   -0.7785   -0.3343 C.2       1 <0>         0.5195
     12 O1         -2.3001   -0.1738   -0.4259 O.co2     1 <0>        -0.6692
     13 O2         -1.2361   -2.0008   -0.3088 O.co2     1 <0>        -0.6739
     14 C10         5.3689    0.7724    1.3659 C.2       1 <0>         0.5196
     15 O3          5.1124   -0.0372    2.2407 O.co2     1 <0>        -0.6563
     16 O4          6.2479    1.5993    1.5393 O.co2     1 <0>        -0.6357
     17 C11         4.1236    3.4086   -0.0200 C.3       1 <0>        -0.1659
     18 C12         4.4906    3.8259   -1.4208 C.2       1 <0>         0.5152
     19 O5          4.3221    3.0552   -2.3504 O.co2     1 <0>        -0.6872
     20 O6          4.9562    4.9342   -1.6246 O.co2     1 <0>        -0.6811
     21 H2         -0.9464    1.9309   -0.3632 H         1 <0>         0.1430
     22 H3          1.0827    3.2339   -0.2432 H         1 <0>         0.1386
     23 H4          1.1946   -1.8031   -0.1309 H         1 <0>         0.1524
     24 H5          3.3021    4.0279    0.3401 H         1 <0>         0.0939
     25 H6          4.9865    3.5335    0.6341 H         1 <0>         0.1151
     26 H7          3.9904   -1.3423    0.0676 H         1 <0>         0.4386
@<TRIPOS>BOND
     1    1   10 ar
     2    1    2 ar
     3    1   21 1
     4    2    3 ar
     5    2   22 1
     6    3    8 ar
     7    3    4 2
     8    4    5 1
     9    4   17 1
    10    5    6 1
    11    5    7 1
    12    5   14 1
    13    7    8 2
    14    7   26 1
    15    8    9 ar
    16    9   10 ar
    17    9   23 1
    18   10   11 1
    19   11   12 2
    20   11   13 1
    21   14   15 2
    22   14   16 1
    23   17   18 1
    24   17   24 1
    25   17   25 1
    26   18   19 2
    27   18   20 1
@<TRIPOS>MOLECULE
ZINC13027303
   33    33     0     0     0
SMALL
USER_CHARGES
5-[[(1S)-1-carboxy-2-methyl-propyl]sulfamoyl]-2-chloro-benzoic acid
@<TRIPOS>ATOM
      1 C1          4.9919    3.2537   -4.3964 C.3       1 <0>        -0.1437
      2 C2          4.2975    4.2230   -3.4377 C.3       1 <0>        -0.0741
      3 C3          3.4144    5.1845   -4.2356 C.3       1 <0>        -0.1563
      4 C4          3.4324    3.4341   -2.4528 C.3       1 <0>         0.1024
      5 H1          2.8693    4.1273   -1.8278 H         1 <0>         0.0858
      6 C5          2.4754    2.5556   -3.2167 C.2       1 <0>         0.4522
      7 O1          2.5074    1.3568   -3.0698 O.co2     1 <0>        -0.6047
      8 N1          4.2911    2.6012   -1.6072 N.pl3     1 <0>        -1.0891
      9 S1          3.8880    2.3381   -0.0227 S.o2      1 <0>         2.7025
     10 O2          3.5926    3.6100    0.5379 O.2       1 <0>        -0.9785
     11 O3          4.8878    1.4827    0.5140 O.2       1 <0>        -0.9731
     12 C6          2.3831    1.4217   -0.0132 C.ar      1 <0>        -0.6697
     13 C7          1.1696    2.0876    0.0021 C.ar      1 <0>        -0.0073
     14 C8         -0.0167    1.3772    0.0096 C.ar      1 <0>        -0.1510
     15 C9          0.0021   -0.0041    0.0020 C.ar      1 <0>         0.0480
     16 C10         1.2239   -0.6822   -0.0133 C.ar      1 <0>        -0.1317
     17 C11         2.4175    0.0433   -0.0209 C.ar      1 <0>         0.0552
     18 C12         1.2530   -2.1583   -0.0211 C.2       1 <0>         0.4943
     19 O4          0.2132   -2.7864   -0.0141 O.co2     1 <0>        -0.6137
     20 Cl1        -1.4879   -0.8949    0.0109 Cl        1 <0>        -0.0509
     21 H2          5.6211    2.5688   -3.8280 H         1 <0>         0.0477
     22 H3          4.2411    2.6861   -4.9462 H         1 <0>         0.0668
     23 H4          5.6082    3.8157   -5.0981 H         1 <0>         0.0439
     24 H5          5.0483    4.7907   -2.8880 H         1 <0>         0.0583
     25 H6          2.9197    5.8750   -3.5526 H         1 <0>         0.0426
     26 H7          4.0307    5.7465   -4.9373 H         1 <0>         0.0334
     27 H8          2.6636    4.6168   -4.7853 H         1 <0>         0.1067
     28 H9          5.0957    2.2038   -1.9754 H         1 <0>         0.4115
     29 H10         1.1493    3.1674    0.0078 H         1 <0>         0.1334
     30 H11        -0.9598    1.9033    0.0169 H         1 <0>         0.1299
     31 H12         3.3653   -0.4743   -0.0324 H         1 <0>         0.1482
     32 O5          1.5876    3.1050   -4.0602 O.co2     1 <0>        -0.7639
     33 O6          2.4327   -2.8088   -0.0359 O.co2     1 <0>        -0.7551
@<TRIPOS>BOND
     1    1    2 1
     2    1   21 1
     3    1   22 1
     4    1   23 1
     5    2    3 1
     6    2    4 1
     7    2   24 1
     8    3   25 1
     9    3   26 1
    10    3   27 1
    11    4    5 1
    12    4    6 1
    13    4    8 1
    14    6    7 2
    15    6   32 1
    16    8    9 1
    17    8   28 1
    18    9   10 2
    19    9   11 2
    20    9   12 1
    21   12   17 ar
    22   12   13 ar
    23   13   14 ar
    24   13   29 1
    25   14   15 ar
    26   14   30 1
    27   15   16 ar
    28   15   20 1
    29   16   17 ar
    30   16   18 1
    31   17   31 1
    32   18   19 2
    33   18   33 1
@<TRIPOS>MOLECULE
ZINC37385826
   32    32     0     0     0
SMALL
USER_CHARGES

@<TRIPOS>ATOM
      1 C1         -0.0184    1.5028    0.0103 C.3       1 <0>        -0.1123
      2 C2          0.0021   -0.0041    0.0020 C.2       1 <0>         0.1952
      3 C3          0.0080   -0.8237   -1.1409 C.2       1 <0>        -0.8354
      4 C4          0.0273   -2.1079   -0.7353 C.2       1 <0>         0.2300
      5 O1          0.0335   -2.1190    0.6064 O.3       1 <0>        -0.0845
      6 N1          0.0230   -0.7748    1.0524 N.2       1 <0>        -0.3312
      7 C5          0.0393   -3.3197   -1.6311 C.3       1 <0>        -0.1401
      8 S1         -0.0076   -0.2673   -2.8126 S.o2      1 <0>         2.7249
      9 O2         -0.5474   -1.3282   -3.5887 O.2       1 <0>        -0.9660
     10 O3         -0.5765    1.0348   -2.8020 O.2       1 <0>        -0.9760
     11 N2          1.5698   -0.0907   -3.2847 N.pl3     1 <0>        -1.0752
     12 C6          2.4441   -1.2631   -3.3714 C.3       1 <0>         0.0761
     13 H1          1.8398   -2.1558   -3.5324 H         1 <0>         0.0758
     14 C7          3.4170   -1.0884   -4.5392 C.3       1 <0>        -0.0750
     15 C8          2.6362   -1.0675   -5.8548 C.3       1 <0>        -0.1794
     16 C9          3.5946   -0.8955   -7.0051 C.2       1 <0>         0.4906
     17 O4          4.7912   -0.7985   -6.7923 O.co2     1 <0>        -0.6994
     18 O5          3.1733   -0.8532   -8.1484 O.co2     1 <0>        -0.7191
     19 C10         3.2205   -1.4068   -2.0879 C.2       1 <0>         0.4872
     20 O6          3.5620   -2.5120   -1.7025 O.co2     1 <0>        -0.7020
     21 O7          3.5072   -0.4180   -1.4349 O.co2     1 <0>        -0.6869
     22 H2          1.0042    1.8801    0.0026 H         1 <0>         0.0996
     23 H3         -0.5455    1.8639   -0.8728 H         1 <0>         0.1150
     24 H4         -0.5286    1.8543    0.9071 H         1 <0>         0.0799
     25 H5          1.0697   -3.5980   -1.8521 H         1 <0>         0.1263
     26 H6         -0.4610   -4.1477   -1.1290 H         1 <0>         0.0919
     27 H7         -0.4822   -3.0898   -2.5603 H         1 <0>         0.1317
     28 H8          1.9150    0.7889   -3.5037 H         1 <0>         0.4157
     29 H9          3.9589   -0.1498   -4.4234 H         1 <0>         0.0627
     30 H10         4.1246   -1.9175   -4.5498 H         1 <0>         0.0701
     31 H11         2.0944   -2.0061   -5.9707 H         1 <0>         0.0554
     32 H12         1.9287   -0.2384   -5.8443 H         1 <0>         0.0542
@<TRIPOS>BOND
     1    1    2 1
     2    1   22 1
     3    1   23 1
     4    1   24 1
     5    2    6 2
     6    2    3 1
     7    3    4 2
     8    3    8 1
     9    4    5 1
    10    4    7 1
    11    5    6 1
    12    7   25 1
    13    7   26 1
    14    7   27 1
    15    8    9 2
    16    8   10 2
    17    8   11 1
    18   11   12 1
    19   11   28 1
    20   12   13 1
    21   12   14 1
    22   12   19 1
    23   14   15 1
    24   14   29 1
    25   14   30 1
    26   15   16 1
    27   15   31 1
    28   15   32 1
    29   16   17 2
    30   16   18 1
    31   19   20 2
    32   19   21 1
@<TRIPOS>MOLECULE
ZINC13092944
   38    38     0     0     0
SMALL
USER_CHARGES

@<TRIPOS>ATOM
      1 C1          0.0171    1.4694   -0.1489 C.3       1 <0>        -0.1480
      2 C2          0.0166   -0.0554   -0.0227 C.3       1 <0>        -0.0707
      3 C3          0.8350   -0.4660    1.2031 C.3       1 <0>        -0.1527
      4 C4         -1.4215   -0.5537    0.1340 C.3       1 <0>        -0.0977
      5 H1         -1.8646   -0.1101    1.0255 H         1 <0>         0.1185
      6 C5         -1.4213   -2.0548    0.2668 C.2       1 <0>         0.5377
      7 O1         -1.5938   -2.7499   -0.7114 O.2       1 <0>        -0.4430
      8 N1         -1.2295   -2.6245    1.4731 N.am      1 <0>        -0.6814
      9 C6         -1.2294   -3.9671    1.5919 C.2       1 <0>         0.6980
     10 O2         -1.4022   -4.6639    0.6113 O.2       1 <0>        -0.5326
     11 N2         -1.0375   -4.5368    2.7982 N.am      1 <0>        -0.8616
     12 S1         -2.3892   -0.0758   -1.3240 S.3       1 <0>         0.0173
     13 C7         -4.0447   -0.4991   -0.8943 C.ar      1 <0>         0.2573
     14 N3         -5.0367   -0.1897   -1.7206 N.ar      1 <0>        -0.5773
     15 C8         -6.2830   -0.5114   -1.3913 C.ar      1 <0>         0.4220
     16 O3         -7.3155   -0.2086   -2.2153 O.3       1 <0>        -0.6607
     17 C9         -6.5079   -1.1675   -0.1804 C.ar      1 <0>        -0.0392
     18 N4         -5.4815   -1.4490    0.6001 N.ar      1 <0>        -0.2046
     19 N5         -4.2853   -1.1285    0.2495 N.ar      1 <0>        -0.4068
     20 C10        -7.9062   -1.5498    0.2314 C.3       1 <0>        -0.0088
     21 C11        -8.2262   -2.9520   -0.2905 C.3       1 <0>        -0.1659
     22 C12        -9.6245   -3.3343    0.1213 C.2       1 <0>         0.4984
     23 O4        -10.3023   -2.5573    0.7719 O.co2     1 <0>        -0.7022
     24 O5        -10.0780   -4.4207   -0.1962 O.co2     1 <0>        -0.7184
     25 H2          1.0448    1.8322   -0.1662 H         1 <0>         0.0586
     26 H3         -0.4856    1.7577   -1.0720 H         1 <0>         0.0713
     27 H4         -0.5075    1.9045    0.7017 H         1 <0>         0.0613
     28 H5          0.4577   -0.4942   -0.9177 H         1 <0>         0.0860
     29 H6          0.3938   -0.0272    2.0981 H         1 <0>         0.0624
     30 H7          0.8346   -1.5523    1.2930 H         1 <0>         0.0572
     31 H8          1.8595   -0.1110    1.0915 H         1 <0>         0.0653
     32 H9         -1.0915   -2.0684    2.2557 H         1 <0>         0.4055
     33 H10        -0.8995   -3.9806    3.5808 H         1 <0>         0.3961
     34 H11        -1.0374   -5.5030    2.8837 H         1 <0>         0.4157
     35 H12        -7.9799   -1.5413    1.3189 H         1 <0>         0.0604
     36 H13        -8.6160   -0.8359   -0.1864 H         1 <0>         0.0767
     37 H14        -8.1525   -2.9605   -1.3780 H         1 <0>         0.0562
     38 H15        -7.5164   -3.6660    0.1273 H         1 <0>         0.0493
@<TRIPOS>BOND
     1    1    2 1
     2    1   25 1
     3    1   26 1
     4    1   27 1
     5    2    3 1
     6    2    4 1
     7    2   28 1
     8    3   29 1
     9    3   30 1
    10    3   31 1
    11    4    5 1
    12    4    6 1
    13    4   12 1
    14    6    7 2
    15    6    8 am
    16    8    9 am
    17    8   32 1
    18    9   10 2
    19    9   11 am
    20   11   33 1
    21   11   34 1
    22   12   13 1
    23   13   14 ar
    24   13   19 ar
    25   14   15 ar
    26   15   16 1
    27   15   17 ar
    28   17   18 ar
    29   17   20 1
    30   18   19 ar
    31   20   21 1
    32   20   35 1
    33   20   36 1
    34   21   22 1
    35   21   37 1
    36   21   38 1
    37   22   23 2
    38   22   24 1
@<TRIPOS>MOLECULE
ZINC16157425
   26    27     0     0     0
SMALL
USER_CHARGES

@<TRIPOS>ATOM
      1 C1         -0.0167    1.3817    0.0096 C.ar      1 <0>        -0.0159
      2 C2          1.1644    2.0986    0.0022 C.ar      1 <0>        -0.1130
      3 C3          2.3798    1.4247   -0.0130 C.ar      1 <0>         0.0080
      4 C4          2.4047    0.0154   -0.0209 C.ar      1 <0>        -0.0974
      5 C5          1.1973   -0.6909   -0.0127 C.ar      1 <0>         0.0090
      6 C6          0.0021   -0.0041    0.0020 C.ar      1 <0>        -0.6531
      7 S1         -1.5169   -0.8970    0.0124 S.o2      1 <0>         2.6971
      8 O1         -1.2633   -2.1540    0.6991 O.2       1 <0>        -1.0575
      9 O2         -2.4849   -0.0756    0.7224 O.2       1 <0>        -1.0625
     10 O3         -1.8949   -1.1036   -1.3771 O.3       1 <0>        -1.0593
     11 C7          3.6835   -0.6943   -0.0379 C.2       1 <0>         0.0895
     12 C8          4.8588   -0.0350   -0.0465 C.2       1 <0>        -0.7728
     13 C9          4.9195    1.3768   -0.0390 C.2       1 <0>         0.4278
     14 O4          5.9972    1.9443   -0.0467 O.2       1 <0>        -0.4048
     15 C10         3.6615    2.1629   -0.0218 C.2       1 <0>         0.1154
     16 N1          3.6850    3.4678   -0.0154 N.2       1 <0>        -0.2704
     17 O5          4.9238    4.1536   -0.0240 O.3       1 <0>        -0.3601
     18 S2          6.3597   -0.9579   -0.0670 S.o2      1 <0>         2.7042
     19 O6          7.1991   -0.4226    0.9936 O.2       1 <0>        -1.0520
     20 O7          6.0040   -2.3482    0.1709 O.2       1 <0>        -1.0638
     21 O8          6.9553   -0.7665   -1.3802 O.3       1 <0>        -1.0580
     22 H1         -0.9614    1.9049    0.0260 H         1 <0>         0.1428
     23 H2          1.1432    3.1784    0.0079 H         1 <0>         0.1378
     24 H3          1.2014   -1.7709   -0.0186 H         1 <0>         0.1523
     25 H4          3.6859   -1.7743   -0.0434 H         1 <0>         0.1610
     26 H5          4.8401    5.1169   -0.0184 H         1 <0>         0.3959
@<TRIPOS>BOND
     1    1    6 ar
     2    1    2 ar
     3    1   22 1
     4    2    3 ar
     5    2   23 1
     6    3   15 1
     7    3    4 ar
     8    4    5 ar
     9    4   11 1
    10    5    6 ar
    11    5   24 1
    12    6    7 1
    13    7    8 2
    14    7    9 2
    15    7   10 1
    16   11   12 2
    17   11   25 1
    18   12   13 1
    19   12   18 1
    20   13   14 2
    21   13   15 1
    22   15   16 2
    23   16   17 1
    24   17   26 1
    25   18   19 2
    26   18   20 2
    27   18   21 1
@<TRIPOS>MOLECULE
ZINC62387221
   40    40     0     0     0
SMALL
USER_CHARGES

@<TRIPOS>ATOM
      1 C1         -0.3339    1.2827   -0.3452 C.3       1 <0>        -0.1254
      2 C2         -0.0883   -0.1999   -0.2330 C.2       1 <0>         0.1757
      3 C3          0.0757   -0.9366   -1.3546 C.2       1 <0>        -0.3271
      4 C4          0.3055   -2.3260   -1.2425 C.2       1 <0>         0.3625
      5 O1          0.4576   -3.0158   -2.2408 O.2       1 <0>        -0.5849
      6 C5          0.3567   -2.9042    0.0512 C.2       1 <0>        -0.0484
      7 C6          0.1846   -2.1116    1.1358 C.2       1 <0>         0.1785
      8 N1         -0.0291   -0.7777    0.9908 N.pl3     1 <0>        -0.4019
      9 C7         -0.2054    0.0533    2.1844 C.3       1 <0>         0.0269
     10 H1         -0.4502    1.0723    1.8848 H         1 <0>         0.1021
     11 C8          1.0901    0.0582    2.9984 C.3       1 <0>        -0.1165
     12 C9          2.2184    0.6589    2.1576 C.3       1 <0>        -0.1806
     13 C10         3.4944    0.6638    2.9593 C.2       1 <0>         0.4968
     14 O2          3.5008    0.2273    4.0977 O.co2     1 <0>        -0.6925
     15 O3          4.5204    1.1042    2.4696 O.co2     1 <0>        -0.7151
     16 C11        -1.3246   -0.5057    3.0247 C.2       1 <0>         0.4952
     17 O4         -1.7972   -1.5984    2.7617 O.co2     1 <0>        -0.6737
     18 O5         -1.7573    0.1347    3.9676 O.co2     1 <0>        -0.6787
     19 C12         0.2363   -2.7137    2.5163 C.3       1 <0>         0.1128
     20 N2          1.4965   -3.4500    2.6825 N.3       1 <0>        -0.5408
     21 C13         2.6335   -2.5275    2.8015 C.3       1 <0>         0.0186
     22 C14         1.4293   -4.3545    3.8381 C.3       1 <0>         0.0360
     23 O6          0.5756   -4.2391    0.2011 O.3       1 <0>        -0.4470
     24 H2          0.6105    1.8165   -0.2383 H         1 <0>         0.0873
     25 H3         -0.7693    1.5062   -1.3192 H         1 <0>         0.0837
     26 H4         -1.0204    1.5978    0.4406 H         1 <0>         0.0799
     27 H5          0.0310   -0.4677   -2.3265 H         1 <0>         0.1363
     28 H6          0.9508    0.6556    3.8994 H         1 <0>         0.0802
     29 H7          1.3484   -0.9636    3.2763 H         1 <0>         0.0926
     30 H8          2.3577    0.0615    1.2566 H         1 <0>         0.0518
     31 H9          1.9600    1.6807    1.8797 H         1 <0>         0.0505
     32 H10         0.1781   -1.9202    3.2612 H         1 <0>         0.0745
     33 H11        -0.6034   -3.3965    2.6465 H         1 <0>         0.1008
     34 H12         2.5614   -1.9815    3.7422 H         1 <0>         0.0535
     35 H13         3.5646   -3.0938    2.7805 H         1 <0>         0.0529
     36 H14         2.6180   -1.8227    1.9702 H         1 <0>         0.0641
     37 H15         0.6220   -5.0721    3.6914 H         1 <0>         0.0608
     38 H16         2.3750   -4.8871    3.9382 H         1 <0>         0.0583
     39 H17         1.2409   -3.7755    4.7422 H         1 <0>         0.0201
     40 H18         0.6852   -4.7158   -0.6331 H         1 <0>         0.3802
@<TRIPOS>BOND
     1    1    2 1
     2    1   24 1
     3    1   25 1
     4    1   26 1
     5    2    8 1
     6    2    3 2
     7    3    4 1
     8    3   27 1
     9    4    5 2
    10    4    6 1
    11    6    7 2
    12    6   23 1
    13    7    8 1
    14    7   19 1
    15    8    9 1
    16    9   10 1
    17    9   11 1
    18    9   16 1
    19   11   12 1
    20   11   28 1
    21   11   29 1
    22   12   13 1
    23   12   30 1
    24   12   31 1
    25   13   14 2
    26   13   15 1
    27   16   17 2
    28   16   18 1
    29   19   20 1
    30   19   32 1
    31   19   33 1
    32   20   21 1
    33   20   22 1
    34   21   34 1
    35   21   35 1
    36   21   36 1
    37   22   37 1
    38   22   38 1
    39   22   39 1
    40   23   40 1
@<TRIPOS>MOLECULE
ZINC33512299
   43    43     0     0     0
SMALL
USER_CHARGES
(2S)-5-amino-2-[[2-methyl-2-(3-methyl-2-oxo-1-pyridyl)propanoyl]amino]-5-oxo-pentanoic acid
@<TRIPOS>ATOM
      1 C1         -0.8099    0.3761    1.8966 C.3       1 <0>        -0.0852
      2 C2          0.2192    0.5477    0.8092 C.2       1 <0>        -0.2123
      3 C3         -0.0230    1.3803   -0.2437 C.2       1 <0>        -0.0245
      4 C4          0.9505    1.5233   -1.2424 C.2       1 <0>        -0.2325
      5 C5          2.1146    0.8386   -1.1542 C.2       1 <0>         0.1223
      6 N1          2.3540    0.0103   -0.1055 N.am      1 <0>        -0.4874
      7 C6          1.4388   -0.1482    0.8695 C.2       1 <0>         0.5138
      8 O1          1.6685   -0.8965    1.8060 O.2       1 <0>        -0.5255
      9 C7          3.6221   -0.7198   -0.0340 C.3       1 <0>         0.1359
     10 C8          4.4367   -0.4523   -1.3012 C.3       1 <0>        -0.1608
     11 C9          4.4125   -0.2504    1.1890 C.3       1 <0>        -0.1462
     12 C10         3.3456   -2.1966    0.0831 C.2       1 <0>         0.5336
     13 O2          4.0605   -2.8947    0.7704 O.2       1 <0>        -0.5296
     14 N2          2.3039   -2.7415   -0.5760 N.am      1 <0>        -0.7001
     15 C11         1.9673   -4.1530   -0.3750 C.3       1 <0>         0.1090
     16 H1          2.1908   -4.4011    0.6731 H         1 <0>         0.0873
     17 C12         0.4861   -4.3738   -0.6879 C.3       1 <0>        -0.0890
     18 C13        -0.3686   -3.6060    0.3225 C.3       1 <0>        -0.1368
     19 C14        -1.8276   -3.8234    0.0143 C.2       1 <0>         0.5179
     20 O3         -2.1520   -4.5235   -0.9215 O.2       1 <0>        -0.5479
     21 N3         -2.7721   -3.2398    0.7784 N.am      1 <0>        -0.8827
     22 C15         2.8068   -5.0051   -1.2917 C.2       1 <0>         0.4614
     23 O4          3.6044   -4.4864   -2.0365 O.co2     1 <0>        -0.6308
     24 O5          2.6685   -6.3402   -1.2807 O.co2     1 <0>        -0.7648
     25 H2         -1.6885    0.9985    1.6715 H         1 <0>         0.0639
     26 H3         -0.3794    0.6844    2.8608 H         1 <0>         0.0675
     27 H4         -1.1129   -0.6799    1.9513 H         1 <0>         0.0665
     28 H5         -0.9525    1.9268   -0.3050 H         1 <0>         0.1302
     29 H6          0.7714    2.1790   -2.0817 H         1 <0>         0.1432
     30 H7          2.8610    0.9521   -1.9265 H         1 <0>         0.1665
     31 H8          5.3889   -1.0005   -1.2475 H         1 <0>         0.0924
     32 H9          4.6385    0.6257   -1.3866 H         1 <0>         0.0752
     33 H10         3.8684   -0.7898   -2.1805 H         1 <0>         0.0777
     34 H11         5.3647   -0.7986    1.2427 H         1 <0>         0.0852
     35 H12         3.8268   -0.4427    2.1000 H         1 <0>         0.0822
     36 H13         4.6143    0.8275    1.1035 H         1 <0>         0.0603
     37 H14         1.7064   -2.1263   -1.2649 H         1 <0>         0.3979
     38 H15         0.2678   -4.0113   -1.7032 H         1 <0>         0.0661
     39 H16         0.2538   -5.4471   -0.6240 H         1 <0>         0.0938
     40 H17        -0.1504   -3.9686    1.3378 H         1 <0>         0.0917
     41 H18        -0.1363   -2.5327    0.2586 H         1 <0>         0.0860
     42 H19        -3.8371   -3.3985    0.5534 H         1 <0>         0.4130
     43 H20        -2.4780   -2.6048    1.6271 H         1 <0>         0.4155
@<TRIPOS>BOND
     1    1    2 1
     2    1   25 1
     3    1   26 1
     4    1   27 1
     5    2    7 1
     6    2    3 2
     7    3    4 1
     8    3   28 1
     9    4    5 2
    10    4   29 1
    11    5    6 1
    12    5   30 1
    13    6    7 am
    14    6    9 1
    15    7    8 2
    16    9   10 1
    17    9   11 1
    18    9   12 1
    19   10   31 1
    20   10   32 1
    21   10   33 1
    22   11   34 1
    23   11   35 1
    24   11   36 1
    25   12   13 2
    26   12   14 am
    27   14   15 1
    28   14   37 1
    29   15   16 1
    30   15   17 1
    31   15   22 1
    32   17   18 1
    33   17   38 1
    34   17   39 1
    35   18   19 1
    36   18   40 1
    37   18   41 1
    38   19   20 2
    39   19   21 am
    40   21   42 1
    41   21   43 1
    42   22   23 2
    43   22   24 1
@<TRIPOS>MOLECULE
ZINC37453038
   40    40     0     0     0
SMALL
USER_CHARGES

@<TRIPOS>ATOM
      1 C1         -0.0184    1.5028    0.0103 C.3       1 <0>        -0.0752
      2 C2          0.0021   -0.0041    0.0020 C.2       1 <0>         0.0966
      3 C3          0.0080   -0.8179   -1.1355 C.2       1 <0>        -0.2083
      4 C4          0.0279   -2.1072   -0.7249 C.2       1 <0>         0.0915
      5 N1          0.0343   -2.1090    0.6245 N.pl3     1 <0>        -0.3796
      6 N2          0.0231   -0.7768    1.0576 N.2       1 <0>        -0.3041
      7 C5          0.0548   -3.2948    1.4847 C.3       1 <0>         0.1059
      8 C6          0.0401   -3.3230   -1.6152 C.3       1 <0>        -0.0890
      9 C7         -0.0061   -0.3430   -2.5656 C.3       1 <0>        -0.0595
     10 C8          1.4098   -0.1648   -3.0497 C.2       1 <0>         0.5079
     11 O1          2.3390   -0.4003   -2.3066 O.2       1 <0>        -0.5374
     12 N3          1.6437    0.2563   -4.3085 N.am      1 <0>        -0.7007
     13 C9          3.0202    0.4295   -4.7791 C.3       1 <0>         0.0775
     14 H1          3.6564   -0.3331   -4.3300 H         1 <0>         0.0807
     15 C10         3.0592    0.2937   -6.3026 C.3       1 <0>        -0.0942
     16 C11         2.6729   -1.1331   -6.6975 C.3       1 <0>        -0.1387
     17 C12         2.7114   -1.2669   -8.1980 C.2       1 <0>         0.5144
     18 O2          3.0175   -0.3148   -8.8841 O.2       1 <0>        -0.5387
     19 N4          2.4055   -2.4446   -8.7776 N.am      1 <0>        -0.8630
     20 C13         3.5181    1.7958   -4.3837 C.2       1 <0>         0.4928
     21 O3          4.7044    1.9726   -4.1650 O.co2     1 <0>        -0.6954
     22 O4          2.7345    2.7244   -4.2825 O.co2     1 <0>        -0.6902
     23 H2          1.0042    1.8801    0.0026 H         1 <0>         0.0819
     24 H3         -0.5455    1.8639   -0.8728 H         1 <0>         0.0772
     25 H4         -0.5286    1.8543    0.9071 H         1 <0>         0.0689
     26 H5          1.0875   -3.5746    1.6932 H         1 <0>         0.0707
     27 H6         -0.4577   -3.0734    2.4209 H         1 <0>         0.0852
     28 H7         -0.4500   -4.1185    0.9800 H         1 <0>         0.0824
     29 H8          1.0706   -3.6020   -1.8350 H         1 <0>         0.0808
     30 H9         -0.4598   -4.1489   -1.1091 H         1 <0>         0.0659
     31 H10        -0.4816   -3.0976   -2.5453 H         1 <0>         0.0826
     32 H11        -0.5129   -1.0802   -3.1883 H         1 <0>         0.0892
     33 H12        -0.5336    0.6089   -2.6271 H         1 <0>         0.0973
     34 H13         0.9006    0.4446   -4.9028 H         1 <0>         0.3903
     35 H14         2.3557    0.9971   -6.7482 H         1 <0>         0.0727
     36 H15         4.0656    0.5101   -6.6610 H         1 <0>         0.0822
     37 H16         3.3764   -1.8365   -6.2519 H         1 <0>         0.0925
     38 H17         1.6666   -1.3495   -6.3391 H         1 <0>         0.0913
     39 H18         2.1606   -3.2061   -8.2289 H         1 <0>         0.3992
     40 H19         2.4302   -2.5307   -9.7435 H         1 <0>         0.3963
@<TRIPOS>BOND
     1    1    2 1
     2    1   23 1
     3    1   24 1
     4    1   25 1
     5    2    6 2
     6    2    3 1
     7    3    4 2
     8    3    9 1
     9    4    5 1
    10    4    8 1
    11    5    6 1
    12    5    7 1
    13    7   26 1
    14    7   27 1
    15    7   28 1
    16    8   29 1
    17    8   30 1
    18    8   31 1
    19    9   10 1
    20    9   32 1
    21    9   33 1
    22   10   11 2
    23   10   12 am
    24   12   13 1
    25   12   34 1
    26   13   14 1
    27   13   15 1
    28   13   20 1
    29   15   16 1
    30   15   35 1
    31   15   36 1
    32   16   17 1
    33   16   37 1
    34   16   38 1
    35   17   18 2
    36   17   19 am
    37   19   39 1
    38   19   40 1
    39   20   21 2
    40   20   22 1
@<TRIPOS>MOLECULE
ZINC40578676
   30    29     0     0     0
SMALL
USER_CHARGES

@<TRIPOS>ATOM
      1 C1         -0.0225    1.8097    0.0120 C.3       1 <0>        -0.6741
      2 S1          0.0021   -0.0041    0.0020 S.o2      1 <0>         2.6200
      3 O1          0.8352   -0.4880    1.0465 O.2       1 <0>        -0.9555
      4 O2         -1.3147   -0.5105   -0.1678 O.2       1 <0>        -0.9580
      5 N1          0.7947   -0.4113   -1.3938 N.pl3     1 <0>        -1.1161
      6 C2          2.2072   -0.0612   -1.5629 C.3       1 <0>         0.1029
      7 C3          2.7924   -0.8537   -2.7335 C.3       1 <0>         0.1341
      8 N2          4.2049   -0.5036   -2.9026 N.am      1 <0>        -0.7529
      9 C4          4.9303   -1.0825   -3.8799 C.2       1 <0>         0.7003
     10 O3          4.4124   -1.8952   -4.6213 O.2       1 <0>        -0.5880
     11 N3          6.2297   -0.7604   -4.0355 N.am      1 <0>        -0.7421
     12 C5          7.0182   -1.3896   -5.0978 C.3       1 <0>         0.1580
     13 C6          8.4504   -0.8529   -5.0560 C.3       1 <0>        -0.1951
     14 C7          9.2615   -1.5002   -6.1488 C.2       1 <0>         0.4954
     15 O4          8.7422   -2.3151   -6.8922 O.co2     1 <0>        -0.6919
     16 O5         10.4370   -1.2088   -6.2895 O.co2     1 <0>        -0.7016
     17 H1          1.0001    2.1870    0.0043 H         1 <0>         0.1274
     18 H2         -0.5497    2.1708   -0.8711 H         1 <0>         0.1295
     19 H3         -0.5327    2.1613    0.9088 H         1 <0>         0.1293
     20 H4          0.3237   -0.8815   -2.0994 H         1 <0>         0.4222
     21 H5          2.2952    1.0060   -1.7665 H         1 <0>         0.0716
     22 H6          2.7532   -0.3034   -0.6511 H         1 <0>         0.0886
     23 H7          2.7044   -1.9209   -2.5299 H         1 <0>         0.0752
     24 H8          2.2464   -0.6115   -3.6453 H         1 <0>         0.0732
     25 H9          4.6180    0.1447   -2.3111 H         1 <0>         0.3953
     26 H10         6.6429   -0.1120   -3.4440 H         1 <0>         0.3911
     27 H11         7.0304   -2.4695   -4.9503 H         1 <0>         0.0675
     28 H12         6.5724   -1.1601   -6.0657 H         1 <0>         0.0673
     29 H13         8.4382    0.2269   -5.2035 H         1 <0>         0.0629
     30 H14         8.8963   -1.0824   -4.0881 H         1 <0>         0.0632
@<TRIPOS>BOND
     1    1    2 1
     2    1   17 1
     3    1   18 1
     4    1   19 1
     5    2    3 2
     6    2    4 2
     7    2    5 1
     8    5    6 1
     9    5   20 1
    10    6    7 1
    11    6   21 1
    12    6   22 1
    13    7    8 1
    14    7   23 1
    15    7   24 1
    16    8    9 am
    17    8   25 1
    18    9   10 2
    19    9   11 am
    20   11   12 1
    21   11   26 1
    22   12   13 1
    23   12   27 1
    24   12   28 1
    25   13   14 1
    26   13   29 1
    27   13   30 1
    28   14   15 2
    29   14   16 1
@<TRIPOS>MOLECULE
ZINC43438028
   38    37     0     0     0
SMALL
USER_CHARGES

@<TRIPOS>ATOM
      1 C1         -0.0187    1.5258    0.0104 C.3       1 <0>        -0.1796
      2 C2          0.0021   -0.0041    0.0020 C.3       1 <0>         0.1059
      3 H1          0.5123   -0.3556   -0.8948 H         1 <0>         0.0653
      4 C3         -1.4333   -0.5336    0.0129 C.3       1 <0>         0.0998
      5 H2         -1.9334   -0.2470   -0.9122 H         1 <0>         0.0917
      6 C4         -1.4136   -2.0361    0.1285 C.2       1 <0>         0.4985
      7 O1         -1.4274   -2.5632    1.2278 O.co2     1 <0>        -0.6777
      8 O2         -1.3838   -2.7245   -0.8773 O.co2     1 <0>        -0.7028
      9 N1         -2.1548    0.0345    1.1543 N.am      1 <0>        -0.6999
     10 C5         -3.4977    0.1430    1.1164 C.2       1 <0>         0.7092
     11 O3         -4.1103   -0.2306    0.1348 O.2       1 <0>        -0.5916
     12 N2         -4.1614    0.6657    2.1665 N.am      1 <0>        -0.7391
     13 C6         -5.6211    0.7837    2.1252 C.3       1 <0>         0.1834
     14 H3         -5.9385    1.0129    1.1080 H         1 <0>         0.1250
     15 C7         -6.2523   -0.5368    2.5711 C.3       1 <0>        -0.1055
     16 C8         -5.9085   -0.7964    4.0392 C.3       1 <0>        -0.1483
     17 C9         -7.7716   -0.4560    2.4096 C.3       1 <0>        -0.1529
     18 C10        -6.0621    1.8888    3.0501 C.2       1 <0>         0.4651
     19 O4         -5.2413    2.5137    3.6792 O.2       1 <0>        -0.5033
     20 O5         -7.3667    2.1788    3.1751 O.3       1 <0>        -0.3419
     21 C11        -7.7129    3.2383    4.0693 C.3       1 <0>         0.0293
     22 O6          0.6932   -0.4774    1.1597 O.3       1 <0>        -0.5448
     23 H4          1.0039    1.9031    0.0027 H         1 <0>         0.0525
     24 H5         -0.5459    1.8868   -0.8726 H         1 <0>         0.0628
     25 H6         -0.5289    1.8773    0.9072 H         1 <0>         0.0604
     26 H7         -1.6661    0.3326    1.9374 H         1 <0>         0.3939
     27 H8         -3.6727    0.9638    2.9495 H         1 <0>         0.4013
     28 H9         -5.8645   -1.3502    1.9578 H         1 <0>         0.0996
     29 H10        -6.2963    0.0170    4.6525 H         1 <0>         0.0449
     30 H11        -6.3582   -1.7371    4.3568 H         1 <0>         0.0626
     31 H12        -4.8261   -0.8539    4.1542 H         1 <0>         0.0620
     32 H13        -8.1594    0.3574    3.0229 H         1 <0>         0.0720
     33 H14        -8.0165   -0.2711    1.3637 H         1 <0>         0.0595
     34 H15        -8.2213   -1.3967    2.7273 H         1 <0>         0.0589
     35 H16        -7.3701    2.9922    5.0743 H         1 <0>         0.0599
     36 H17        -7.2378    4.1621    3.7394 H         1 <0>         0.0596
     37 H18        -8.7951    3.3687    4.0764 H         1 <0>         0.1019
     38 H19         1.6114   -0.1800    1.2187 H         1 <0>         0.3622
@<TRIPOS>BOND
     1    1    2 1
     2    1   23 1
     3    1   24 1
     4    1   25 1
     5    2    3 1
     6    2    4 1
     7    2   22 1
     8    4    5 1
     9    4    6 1
    10    4    9 1
    11    6    7 2
    12    6    8 1
    13    9   10 am
    14    9   26 1
    15   10   11 2
    16   10   12 am
    17   12   13 1
    18   12   27 1
    19   13   14 1
    20   13   15 1
    21   13   18 1
    22   15   16 1
    23   15   17 1
    24   15   28 1
    25   16   29 1
    26   16   30 1
    27   16   31 1
    28   17   32 1
    29   17   33 1
    30   17   34 1
    31   18   19 2
    32   18   20 1
    33   20   21 1
    34   21   35 1
    35   21   36 1
    36   21   37 1
    37   22   38 1
@<TRIPOS>MOLECULE
ZINC49502895
   39    39     0     0     0
SMALL
USER_CHARGES

@<TRIPOS>ATOM
      1 C1          0.2168    1.5926   -0.1558 C.3       1 <0>        -0.1610
      2 C2         -0.0415    0.0894   -0.0349 C.3       1 <0>         0.1669
      3 H1          0.3427   -0.4176   -0.9201 H         1 <0>         0.0861
      4 C3          0.6657   -0.4511    1.2096 C.3       1 <0>         0.0481
      5 N1          0.3371   -1.8726    1.3810 N.3       1 <0>        -0.5289
      6 C4          0.5873   -2.3083    2.7626 C.3       1 <0>         0.0206
      7 C5          0.1764   -3.7755    2.9116 C.3       1 <0>         0.0624
      8 O1          0.8913   -4.5649    1.9570 O.3       1 <0>        -0.3888
      9 C6          0.6701   -4.1683    0.6009 C.3       1 <0>         0.0615
     10 C7          1.0861   -2.7051    0.4284 C.3       1 <0>         0.0211
     11 N2         -1.4821   -0.1510    0.0790 N.am      1 <0>        -0.7318
     12 C8         -2.2295   -0.3048   -1.0320 C.2       1 <0>         0.7060
     13 O2         -1.7081   -0.2441   -2.1287 O.2       1 <0>        -0.6011
     14 N3         -3.5549   -0.5260   -0.9272 N.am      1 <0>        -0.7077
     15 C9         -4.3673   -0.6932   -2.1348 C.3       1 <0>         0.0907
     16 H2         -3.9806   -0.0495   -2.9249 H         1 <0>         0.0901
     17 C10        -5.8175   -0.3120   -1.8306 C.3       1 <0>         0.0863
     18 O3         -6.3615   -1.2289   -0.8790 O.3       1 <0>        -0.5511
     19 C11        -4.3094   -2.1304   -2.5842 C.2       1 <0>         0.4992
     20 O4         -4.1568   -3.0198   -1.7643 O.co2     1 <0>        -0.6776
     21 O5         -4.4151   -2.4038   -3.7676 O.co2     1 <0>        -0.7057
     22 H3          1.2887    1.7714   -0.2405 H         1 <0>         0.0589
     23 H4         -0.2870    1.9776   -1.0424 H         1 <0>         0.0647
     24 H5         -0.1673    2.0996    0.7294 H         1 <0>         0.0533
     25 H6          1.7436   -0.3389    1.0925 H         1 <0>         0.0488
     26 H7          0.3355    0.1064    2.0860 H         1 <0>         0.0773
     27 H8          1.6478   -2.2023    2.9912 H         1 <0>         0.0382
     28 H9          0.0033   -1.6952    3.4490 H         1 <0>         0.0835
     29 H10         0.4131   -4.1194    3.9185 H         1 <0>         0.0939
     30 H11        -0.8948   -3.8732    2.7354 H         1 <0>         0.0627
     31 H12         1.2639   -4.7962   -0.0634 H         1 <0>         0.0975
     32 H13        -0.3867   -4.2774    0.3575 H         1 <0>         0.0687
     33 H14         0.8662   -2.3816   -0.5890 H         1 <0>         0.0905
     34 H15         2.1545   -2.6054    0.6198 H         1 <0>         0.0389
     35 H16        -1.8980   -0.1995    0.9539 H         1 <0>         0.3914
     36 H17        -3.9708   -0.5744   -0.0522 H         1 <0>         0.3912
     37 H18        -5.8496    0.6978   -1.4215 H         1 <0>         0.0367
     38 H19        -6.4037   -0.3509   -2.7487 H         1 <0>         0.0554
     39 H20        -7.2804   -1.0474   -0.6388 H         1 <0>         0.3630
@<TRIPOS>BOND
     1    1    2 1
     2    1   22 1
     3    1   23 1
     4    1   24 1
     5    2    3 1
     6    2    4 1
     7    2   11 1
     8    4    5 1
     9    4   25 1
    10    4   26 1
    11    5   10 1
    12    5    6 1
    13    6    7 1
    14    6   27 1
    15    6   28 1
    16    7    8 1
    17    7   29 1
    18    7   30 1
    19    8    9 1
    20    9   10 1
    21    9   31 1
    22    9   32 1
    23   10   33 1
    24   10   34 1
    25   11   12 am
    26   11   35 1
    27   12   13 2
    28   12   14 am
    29   14   15 1
    30   14   36 1
    31   15   16 1
    32   15   17 1
    33   15   19 1
    34   17   18 1
    35   17   37 1
    36   17   38 1
    37   18   39 1
    38   19   20 2
    39   19   21 1
@<TRIPOS>MOLECULE
ZINC15057122
   28    29     0     0     0
SMALL
USER_CHARGES
2-[(5R)-5-[(5R)-3-(carboxymethyl)-2,4-dioxo-thiazolidin-5-yl]-2,4-dioxo-thiazolidin-3-yl]acetic acid
@<TRIPOS>ATOM
      1 C1         -2.4085    1.1641    0.0192 C.3       1 <0>         0.0428
      2 C2         -2.8365    0.9042    1.4406 C.2       1 <0>         0.4574
      3 O1         -2.1534    1.2934    2.3580 O.co2     1 <0>        -0.6102
      4 N1         -1.1415    1.8997    0.0175 N.am      1 <0>        -0.5506
      5 C3         -0.0144    1.2082    0.0087 C.2       1 <0>         0.5408
      6 O2          0.0021   -0.0041    0.0020 O.2       1 <0>        -0.4638
      7 C4          1.2608    2.0391    0.0010 C.3       1 <0>        -0.0720
      8 H1          1.8423    1.8645   -0.9043 H         1 <0>         0.1766
      9 S1          0.5364    3.7274    0.0162 S.3       1 <0>        -0.1064
     10 C5         -1.1839    3.2449    0.0299 C.2       1 <0>         0.5702
     11 O3         -2.1641    3.9640    0.0426 O.2       1 <0>        -0.4240
     12 C6          2.0999    1.7822    1.2543 C.3       1 <0>        -0.0717
     13 H2          2.3191    0.7208    1.3703 H         1 <0>         0.1765
     14 C7          3.3751    2.6131    1.2466 C.2       1 <0>         0.5407
     15 O4          4.2283    2.4828    0.3951 O.2       1 <0>        -0.4637
     16 N2          3.4882    3.4873    2.2324 N.am      1 <0>        -0.5505
     17 C8          2.5542    3.6495    3.1879 C.2       1 <0>         0.5703
     18 O5          2.5687    4.4212    4.1271 O.2       1 <0>        -0.4240
     19 S2          1.2879    2.4660    2.7538 S.3       1 <0>        -0.1072
     20 C9          4.6914    4.3212    2.2876 C.3       1 <0>         0.0428
     21 C10         4.4591    5.5903    1.5087 C.2       1 <0>         0.4574
     22 O6          3.3975    5.7787    0.9634 O.co2     1 <0>        -0.6100
     23 H3         -3.1719    1.7541   -0.4880 H         1 <0>         0.0999
     24 H4         -2.2782    0.2148   -0.5004 H         1 <0>         0.1027
     25 H5          4.9153    4.5678    3.3255 H         1 <0>         0.0999
     26 H6          5.5306    3.7773    1.8542 H         1 <0>         0.1026
     27 O7         -3.9767    0.2402    1.6874 O.co2     1 <0>        -0.7631
     28 O8          5.4317    6.5112    1.4207 O.co2     1 <0>        -0.7631
@<TRIPOS>BOND
     1    1    2 1
     2    1    4 1
     3    1   23 1
     4    1   24 1
     5    2    3 2
     6    2   27 1
     7    4   10 am
     8    4    5 am
     9    5    6 2
    10    5    7 1
    11    7    8 1
    12    7    9 1
    13    7   12 1
    14    9   10 1
    15   10   11 2
    16   12   13 1
    17   12   19 1
    18   12   14 1
    19   14   15 2
    20   14   16 am
    21   16   17 am
    22   16   20 1
    23   17   18 2
    24   17   19 1
    25   20   21 1
    26   20   25 1
    27   20   26 1
    28   21   22 2
    29   21   28 1
@<TRIPOS>MOLECULE
ZINC20215543
   31    32     0     0     0
SMALL
USER_CHARGES

@<TRIPOS>ATOM
      1 C1         -0.0173    1.4248    0.0099 C.3       1 <0>         0.0317
      2 O1          0.0021   -0.0041    0.0020 O.3       1 <0>        -0.3769
      3 C2         -1.2953   -0.6030    0.0112 C.3       1 <0>         0.0673
      4 H1         -2.0251    0.0431   -0.4768 H         1 <0>         0.0697
      5 C3         -1.2648   -2.0062   -0.6502 C.3       1 <0>        -0.0971
      6 C4         -2.4458   -2.7332    0.0267 C.3       1 <0>         0.0687
      7 H2         -3.3277   -2.6821   -0.6118 H         1 <0>         0.0628
      8 N1         -2.7096   -2.0461    1.2995 N.am      1 <0>        -0.5842
      9 C5         -1.7373   -0.9483    1.4552 C.3       1 <0>         0.0997
     10 C6         -3.6805   -2.3655    2.1780 C.2       1 <0>         0.6256
     11 O2         -4.4306   -3.2949    1.9447 O.2       1 <0>        -0.5536
     12 C7         -3.8330   -1.5928    3.4154 C.2       1 <0>        -0.0699
     13 C8         -4.7725   -1.8095    4.4009 C.2       1 <0>        -0.1316
     14 C9         -4.5568   -0.8478    5.3928 C.2       1 <0>        -0.1939
     15 C10        -3.5124   -0.0775    5.0046 C.2       1 <0>         0.0187
     16 N2         -3.0603   -0.5230    3.8071 N.2       1 <0>        -0.4910
     17 N3         -5.3325   -0.6976    6.6445 N.pl3     1 <0>         0.0958
     18 O3         -6.2488   -1.4498    6.8817 O.2       1 <0>        -0.2422
     19 O4         -5.0498    0.1772    7.4296 O.3       1 <0>        -0.2456
     20 C11        -2.0820   -4.1729    0.2837 C.2       1 <0>         0.4983
     21 O5         -1.9029   -4.5620    1.4251 O.co2     1 <0>        -0.6704
     22 O6         -1.9669   -4.9485   -0.6500 O.co2     1 <0>        -0.7142
     23 H3          1.0053    1.8021    0.0021 H         1 <0>         0.0779
     24 H4         -0.5445    1.7859   -0.8732 H         1 <0>         0.0346
     25 H5         -0.5275    1.7763    0.9067 H         1 <0>         0.0440
     26 H6         -1.4247   -1.9292   -1.7257 H         1 <0>         0.0729
     27 H7         -0.3247   -2.5139   -0.4344 H         1 <0>         0.0790
     28 H8         -0.8824   -1.2800    2.0445 H         1 <0>         0.0628
     29 H9         -2.2103   -0.0853    1.9238 H         1 <0>         0.0981
     30 H10        -5.5322   -2.5772    4.4057 H         1 <0>         0.1205
     31 H11        -3.1041    0.7536    5.5605 H         1 <0>         0.1427
@<TRIPOS>BOND
     1    1    2 1
     2    1   23 1
     3    1   24 1
     4    1   25 1
     5    2    3 1
     6    3    4 1
     7    3    9 1
     8    3    5 1
     9    5    6 1
    10    5   26 1
    11    5   27 1
    12    6    7 1
    13    6    8 1
    14    6   20 1
    15    8    9 1
    16    8   10 am
    17    9   28 1
    18    9   29 1
    19   10   11 2
    20   10   12 1
    21   12   16 1
    22   12   13 2
    23   13   14 1
    24   13   30 1
    25   14   15 2
    26   14   17 1
    27   15   16 1
    28   15   31 1
    29   17   18 2
    30   17   19 1
    31   20   21 2
    32   20   22 1
@<TRIPOS>MOLECULE
ZINC41043329
   27    27     0     0     0
SMALL
USER_CHARGES

@<TRIPOS>ATOM
      1 C1         -0.0187    1.5262    0.0104 C.3       1 <0>        -0.1028
      2 C2          1.4200    2.0524   -0.0005 C.3       1 <0>         0.1323
      3 N1          2.1298    1.4649   -1.1449 N.pl3     1 <0>        -0.9856
      4 C3          2.1347    0.0037   -1.2986 C.3       1 <0>         0.1323
      5 C4          0.6880   -0.4996   -1.2731 C.3       1 <0>        -0.1028
      6 C5          0.0021   -0.0041    0.0020 C.3       1 <0>        -0.1493
      7 C6         -1.4111   -0.5256    0.0471 C.2       1 <0>         0.4971
      8 O1         -1.6844   -1.5918   -0.4773 O.co2     1 <0>        -0.7068
      9 O2         -2.2811    0.1187    0.6079 O.co2     1 <0>        -0.7068
     10 S1          2.9090    2.4312   -2.2409 S.o2      1 <0>         2.7171
     11 O3          2.9920    1.6890   -3.4499 O.2       1 <0>        -1.0752
     12 O4          2.2875    3.7072   -2.1714 O.2       1 <0>        -1.0752
     13 N2          4.4617    2.6309   -1.7007 N.2       1 <0>        -1.1978
     14 C7          5.4052    3.4469   -2.4689 C.3       1 <0>         0.2294
     15 C8          6.7077    3.4672   -1.7833 C.1       1 <0>         0.2785
     16 N3          7.7128    3.4828   -1.2542 N.1       1 <0>        -0.5145
     17 H1         -0.5280    1.8782    0.9075 H         1 <0>         0.0674
     18 H2         -0.5450    1.8877   -0.8729 H         1 <0>         0.0521
     19 H3          1.4111    3.1384   -0.0944 H         1 <0>         0.0789
     20 H4          1.9202    1.7677    0.9251 H         1 <0>         0.0487
     21 H5          2.5974   -0.2622   -2.2490 H         1 <0>         0.0789
     22 H6          2.6932   -0.4481   -0.4789 H         1 <0>         0.0487
     23 H7          0.1550   -0.1190   -2.1444 H         1 <0>         0.0521
     24 H8          0.6816   -1.5895   -1.2897 H         1 <0>         0.0674
     25 H9          0.5499   -0.3646    0.8726 H         1 <0>         0.0595
     26 H10         5.5257    3.0218   -3.4653 H         1 <0>         0.0381
     27 H11         5.0223    4.4641   -2.5517 H         1 <0>         0.0381
@<TRIPOS>BOND
     1    1    6 1
     2    1    2 1
     3    1   17 1
     4    1   18 1
     5    2    3 1
     6    2   19 1
     7    2   20 1
     8    3    4 1
     9    3   10 1
    10    4    5 1
    11    4   21 1
    12    4   22 1
    13    5    6 1
    14    5   23 1
    15    5   24 1
    16    6    7 1
    17    6   25 1
    18    7    8 2
    19    7    9 1
    20   10   11 2
    21   10   12 2
    22   10   13 1
    23   13   14 1
    24   14   15 1
    25   14   26 1
    26   14   27 1
    27   15   16 3
@<TRIPOS>MOLECULE
ZINC03861122
   21    21     0     0     0
SMALL
USER_CHARGES

@<TRIPOS>ATOM
      1 C1         -0.4834    0.4212    0.2331 C.3       1 <0>        -0.1451
      2 H1         -0.4928   -0.5439    0.7397 H         1 <0>         0.0229
      3 C2         -0.6217    1.5709    1.2560 C.3       1 <0>        -0.1448
      4 H2         -0.6994    1.1742    2.2683 H         1 <0>         0.0232
      5 C3          0.6839    2.3797    1.0903 C.3       1 <0>         0.0270
      6 H3          1.4259    2.0562    1.8203 H         1 <0>         0.0009
      7 O1          1.1342    2.0833   -0.2495 O.3       1 <0>        -0.3086
      8 C4          0.8894    0.6714   -0.4295 C.3       1 <0>         0.0269
      9 H4          1.6630    0.0858    0.0674 H         1 <0>         0.0006
     10 C5          0.8336    0.3314   -1.8966 C.2       1 <0>         0.5371
     11 O2          0.9805    1.2078   -2.7314 O.co2     1 <0>        -0.6767
     12 O3          0.6416   -0.8199   -2.2487 O.co2     1 <0>        -0.7416
     13 C6          0.4103    3.8541    1.2402 C.2       1 <0>         0.5356
     14 O4          0.0274    4.2975    2.3094 O.co2     1 <0>        -0.7403
     15 O5          0.5718    4.6035    0.2921 O.co2     1 <0>        -0.6771
     16 C7         -1.8201    2.4250    0.9315 C.2       1 <0>         0.5227
     17 O6         -2.8152    2.3714    1.6341 O.co2     1 <0>        -0.7677
     18 O7         -1.7947    3.1697   -0.0336 O.co2     1 <0>        -0.6255
     19 C8         -1.5851    0.4881   -0.7930 C.2       1 <0>         0.5233
     20 O8         -2.5068   -0.3088   -0.7507 O.co2     1 <0>        -0.7682
     21 O9         -1.5546    1.3391   -1.6655 O.co2     1 <0>        -0.6245
@<TRIPOS>BOND
     1    1    2 1
     2    1    8 1
     3    1    3 1
     4    1   19 1
     5    3    4 1
     6    3    5 1
     7    3   16 1
     8    5    6 1
     9    5    7 1
    10    5   13 1
    11    7    8 1
    12    8    9 1
    13    8   10 1
    14   10   11 2
    15   10   12 1
    16   13   14 2
    17   13   15 1
    18   16   17 2
    19   16   18 1
    20   19   20 2
    21   19   21 1
@<TRIPOS>MOLECULE
ZINC62947199
   32    32     0     0     0
SMALL
USER_CHARGES

@<TRIPOS>ATOM
      1 C1         -0.0187    1.5258    0.0104 C.3       1 <0>        -0.1502
      2 C2          0.0021   -0.0041    0.0020 C.3       1 <0>         0.0569
      3 O1          0.6709   -0.4649   -1.1737 O.3       1 <0>        -0.3564
      4 C3          0.7755   -1.7935   -1.3341 C.2       1 <0>         0.4694
      5 O2          0.3143   -2.5404   -0.5039 O.2       1 <0>        -0.4988
      6 C4          1.4679   -2.3535   -2.5498 C.3       1 <0>        -0.1020
      7 C5          1.4493   -3.8821   -2.4885 C.3       1 <0>        -0.5925
      8 S1          2.2829   -4.5562   -3.9519 S.o2      1 <0>         2.5180
      9 O3          1.5214   -4.2802   -5.1195 O.2       1 <0>        -1.0278
     10 O4          3.6714   -4.2577   -3.9052 O.2       1 <0>        -1.0279
     11 N1          2.1977   -6.2000   -3.7707 N.2       1 <0>        -1.0896
     12 C6          2.7538   -7.0395   -4.7397 C.ar      1 <0>         0.2145
     13 C7          2.6822   -8.4209   -4.5992 C.ar      1 <0>        -0.1069
     14 C8          3.2549   -9.2183   -5.5976 C.ar      1 <0>        -0.1527
     15 C9          3.8709   -8.5980   -6.6875 C.ar      1 <0>         0.0244
     16 N2          3.9147   -7.2855   -6.7776 N.ar      1 <0>        -0.4709
     17 C10         3.3804   -6.5040   -5.8590 C.ar      1 <0>        -0.0538
     18 C11         3.2089  -10.6899   -5.5001 C.2       1 <0>         0.5313
     19 O5          2.6675  -11.2225   -4.5417 O.co2     1 <0>        -0.6961
     20 O6          3.7121  -11.3768   -6.3778 O.co2     1 <0>        -0.7014
     21 H1          1.0039    1.9031    0.0027 H         1 <0>         0.0659
     22 H2         -0.5459    1.8868   -0.8726 H         1 <0>         0.0659
     23 H3         -0.5289    1.8773    0.9072 H         1 <0>         0.0756
     24 H4          0.5293   -0.3651    0.8851 H         1 <0>         0.0659
     25 H5         -1.0205   -0.3814    0.0098 H         1 <0>         0.0659
     26 H6          0.9501   -2.0196   -3.4490 H         1 <0>         0.1161
     27 H7          2.4999   -2.0034   -2.5737 H         1 <0>         0.1161
     28 H8          1.9671   -4.2160   -1.5894 H         1 <0>         0.1284
     29 H9          0.4173   -4.2322   -2.4647 H         1 <0>         0.1284
     30 H10         2.1984   -8.8668   -3.7428 H         1 <0>         0.1244
     31 H11         4.3163   -9.2019   -7.4643 H         1 <0>         0.1404
     32 H12         3.4351   -5.4318   -5.9758 H         1 <0>         0.1197
@<TRIPOS>BOND
     1    1    2 1
     2    1   21 1
     3    1   22 1
     4    1   23 1
     5    2    3 1
     6    2   24 1
     7    2   25 1
     8    3    4 1
     9    4    5 2
    10    4    6 1
    11    6    7 1
    12    6   26 1
    13    6   27 1
    14    7    8 1
    15    7   28 1
    16    7   29 1
    17    8    9 2
    18    8   10 2
    19    8   11 1
    20   11   12 1
    21   12   17 ar
    22   12   13 ar
    23   13   14 ar
    24   13   30 1
    25   14   15 ar
    26   14   18 1
    27   15   16 ar
    28   15   31 1
    29   16   17 ar
    30   17   32 1
    31   18   19 2
    32   18   20 1
@<TRIPOS>MOLECULE
ZINC19413062
   25    24     0     0     0
SMALL
USER_CHARGES
(2R)-4-methylsulfonyl-2-ureido-butanoic acid
@<TRIPOS>ATOM
      1 C1         -4.0305    3.4925   -4.4845 C.3       1 <0>        -0.6624
      2 S1         -4.5691    3.2847   -2.7649 S.o2      1 <0>         2.4169
      3 O1         -5.7762    2.5350   -2.7594 O.2       1 <0>        -0.9386
      4 O2         -4.5418    4.5551   -2.1287 O.2       1 <0>        -0.9436
      5 C2         -3.2531    2.2586   -2.0539 C.3       1 <0>        -0.6007
      6 C3         -3.5593    1.9855   -0.5799 C.3       1 <0>        -0.0993
      7 C4         -2.4493    1.1200    0.0198 C.3       1 <0>         0.1314
      8 H1         -2.2934    0.2087   -0.5762 H         1 <0>         0.0916
      9 C5         -2.8108    0.7488    1.4349 C.2       1 <0>         0.4556
     10 O3         -2.0909    1.0769    2.3482 O.co2     1 <0>        -0.6258
     11 O4         -3.9325    0.0538    1.6808 O.co2     1 <0>        -0.7656
     12 N1         -1.1906    1.8696    0.0179 N.am      1 <0>        -0.7298
     13 C6         -0.0144    1.2117    0.0087 C.2       1 <0>         0.7118
     14 O5          0.0021   -0.0041    0.0020 O.2       1 <0>        -0.6063
     15 N2          1.1435    1.9014    0.0014 N.am      1 <0>        -0.8974
     16 H2         -3.0956    4.0717   -4.5085 H         1 <0>         0.1267
     17 H3         -4.8078    4.0273   -5.0501 H         1 <0>         0.1271
     18 H4         -3.8615    2.5046   -4.9377 H         1 <0>         0.1276
     19 H5         -3.1965    1.3051   -2.5994 H         1 <0>         0.1335
     20 H6         -2.2914    2.7862   -2.1370 H         1 <0>         0.1288
     21 H7         -3.6159    2.9390   -0.0344 H         1 <0>         0.0808
     22 H8         -4.5209    1.4579   -0.4968 H         1 <0>         0.1058
     23 H9         -1.2055    2.9695    0.0240 H         1 <0>         0.4011
     24 H10         2.1035    1.3644   -0.0061 H         1 <0>         0.4261
     25 H11         1.1285    3.0013    0.0030 H         1 <0>         0.4049
@<TRIPOS>BOND
     1    1    2 1
     2    1   16 1
     3    1   17 1
     4    1   18 1
     5    2    3 2
     6    2    4 2
     7    2    5 1
     8    5    6 1
     9    5   19 1
    10    5   20 1
    11    6    7 1
    12    6   21 1
    13    6   22 1
    14    7    8 1
    15    7    9 1
    16    7   12 1
    17    9   10 2
    18    9   11 1
    19   12   13 am
    20   12   23 1
    21   13   14 2
    22   13   15 am
    23   15   24 1
    24   15   25 1
@<TRIPOS>MOLECULE
ZINC36969552
   34    34     0     0     0
SMALL
USER_CHARGES

@<TRIPOS>ATOM
      1 C1         -0.0187    1.5258    0.0104 C.3       1 <0>        -0.1480
      2 C2          0.0021   -0.0041    0.0020 C.3       1 <0>        -0.1194
      3 C3          0.7182   -0.4975   -1.2568 C.3       1 <0>        -0.0818
      4 H1          1.7103   -0.0491   -1.3098 H         1 <0>         0.0761
      5 C4         -0.0892   -0.0968   -2.4931 C.3       1 <0>        -0.1461
      6 C5          0.8493   -2.0210   -1.2049 C.3       1 <0>         0.0905
      7 H2         -0.1428   -2.4694   -1.1520 H         1 <0>         0.0671
      8 C6          1.6446   -2.4156    0.0128 C.2       1 <0>         0.4942
      9 O1          1.0751   -2.6327    1.0688 O.co2     1 <0>        -0.6920
     10 O2          2.8574   -2.5178   -0.0581 O.co2     1 <0>        -0.6809
     11 N1          1.5350   -2.4934   -2.4103 N.pl3     1 <0>        -1.0763
     12 S1          1.1105   -3.9426   -3.0901 S.o2      1 <0>         2.7170
     13 O3          1.9254   -4.1045   -4.2429 O.2       1 <0>        -0.9489
     14 O4          1.0855   -4.8942   -2.0351 O.2       1 <0>        -0.9481
     15 C7         -0.5478   -3.7830   -3.6639 C.2       1 <0>        -0.8485
     16 C8         -1.5645   -4.3574   -2.9860 C.2       1 <0>         0.3069
     17 N2         -2.8464   -4.2236   -3.4456 N.am      1 <0>        -0.6302
     18 H3         -3.5768   -4.6362   -2.9586 H         1 <0>         0.4430
     19 C9         -3.1032   -3.5249   -4.5662 C.2       1 <0>         0.7041
     20 O5         -4.2498   -3.4183   -4.9566 O.2       1 <0>        -0.5335
     21 N3         -2.1088   -2.9418   -5.2611 N.am      1 <0>        -0.6544
     22 H4         -2.3116   -2.4410   -6.0667 H         1 <0>         0.4339
     23 C10        -0.8326   -3.0460   -4.8386 C.2       1 <0>         0.5921
     24 O6          0.0671   -2.5145   -5.4639 O.2       1 <0>        -0.4826
     25 H5          1.0039    1.9031    0.0027 H         1 <0>         0.0511
     26 H6         -0.5459    1.8868   -0.8726 H         1 <0>         0.0483
     27 H7         -0.5289    1.8773    0.9072 H         1 <0>         0.0485
     28 H8          0.5293   -0.3651    0.8851 H         1 <0>         0.0852
     29 H9         -1.0205   -0.3814    0.0098 H         1 <0>         0.0551
     30 H10        -0.1826    0.9885   -2.5300 H         1 <0>         0.0535
     31 H11         0.4210   -0.4484   -3.3899 H         1 <0>         0.0565
     32 H12        -1.0813   -0.5452   -2.4401 H         1 <0>         0.0416
     33 H13         2.2376   -1.9574   -2.8101 H         1 <0>         0.4182
     34 H14        -1.3669   -4.9200   -2.0855 H         1 <0>         0.2078
@<TRIPOS>BOND
     1    1    2 1
     2    1   25 1
     3    1   26 1
     4    1   27 1
     5    2    3 1
     6    2   28 1
     7    2   29 1
     8    3    4 1
     9    3    5 1
    10    3    6 1
    11    5   30 1
    12    5   31 1
    13    5   32 1
    14    6    7 1
    15    6    8 1
    16    6   11 1
    17    8    9 2
    18    8   10 1
    19   11   12 1
    20   11   33 1
    21   12   13 2
    22   12   14 2
    23   12   15 1
    24   15   23 1
    25   15   16 2
    26   16   17 1
    27   16   34 1
    28   17   18 1
    29   17   19 am
    30   19   20 2
    31   19   21 am
    32   21   22 1
    33   21   23 am
    34   23   24 2
@<TRIPOS>MOLECULE
ZINC37450265
   33    33     0     0     0
SMALL
USER_CHARGES

@<TRIPOS>ATOM
      1 C1         -0.0178    1.4608    0.0101 C.3       1 <0>         0.1214
      2 N1          0.0021   -0.0041    0.0020 N.am      1 <0>        -0.6326
      3 C2         -1.1671   -0.9002    0.0024 C.3       1 <0>         0.0687
      4 C3         -0.5536   -2.2863   -0.0088 C.2       1 <0>         0.5235
      5 O1         -1.1408   -3.3469   -0.0129 O.2       1 <0>        -0.4585
      6 N2          0.7803   -2.0943   -0.0142 N.am      1 <0>        -0.5583
      7 C4          1.0916   -0.7931   -0.0131 C.2       1 <0>         0.7066
      8 O2          2.2313   -0.3711   -0.0216 O.2       1 <0>        -0.5399
      9 C5          1.7675   -3.1767   -0.0247 C.3       1 <0>         0.1031
     10 C6          2.0996   -3.5398   -1.4491 C.2       1 <0>         0.5126
     11 O3          1.5644   -2.9523   -2.3653 O.2       1 <0>        -0.5399
     12 N3          2.9914   -4.5174   -1.7049 N.am      1 <0>        -0.6820
     13 C7          3.3143   -4.8704   -3.0896 C.3       1 <0>         0.0947
     14 H1          3.2938   -3.9728   -3.7076 H         1 <0>         0.0895
     15 C8          4.7097   -5.4956   -3.1444 C.3       1 <0>        -0.1333
     16 C9          5.7368   -4.4676   -2.7452 C.2       1 <0>         0.5104
     17 O4          5.3871   -3.3454   -2.4463 O.2       1 <0>        -0.5303
     18 N4          7.0438   -4.7953   -2.7204 N.am      1 <0>        -0.8635
     19 C10         2.3004   -5.8588   -3.6055 C.2       1 <0>         0.4906
     20 O5          1.3923   -6.2336   -2.8835 O.co2     1 <0>        -0.6780
     21 O6          2.3882   -6.2836   -4.7449 O.co2     1 <0>        -0.6974
     22 H2          1.0048    1.8381    0.0023 H         1 <0>         0.0886
     23 H3         -0.5450    1.8219   -0.8730 H         1 <0>         0.0663
     24 H4         -0.5280    1.8123    0.9069 H         1 <0>         0.0656
     25 H5         -1.7635   -0.7521    0.9027 H         1 <0>         0.1203
     26 H6         -1.7723   -0.7414   -0.8902 H         1 <0>         0.1215
     27 H7          2.6722   -2.8483    0.4869 H         1 <0>         0.1199
     28 H8          1.3571   -4.0477    0.4860 H         1 <0>         0.1223
     29 H9          3.4195   -4.9873   -0.9722 H         1 <0>         0.3878
     30 H10         4.7562   -6.3412   -2.4582 H         1 <0>         0.0926
     31 H11         4.9144   -5.8389   -4.1585 H         1 <0>         0.1137
     32 H12         7.3235   -5.6928   -2.9594 H         1 <0>         0.3991
     33 H13         7.7049   -4.1336   -2.4634 H         1 <0>         0.3947
@<TRIPOS>BOND
     1    1    2 1
     2    1   22 1
     3    1   23 1
     4    1   24 1
     5    2    7 am
     6    2    3 1
     7    3    4 1
     8    3   25 1
     9    3   26 1
    10    4    5 2
    11    4    6 am
    12    6    7 am
    13    6    9 1
    14    7    8 2
    15    9   10 1
    16    9   27 1
    17    9   28 1
    18   10   11 2
    19   10   12 am
    20   12   13 1
    21   12   29 1
    22   13   14 1
    23   13   15 1
    24   13   19 1
    25   15   16 1
    26   15   30 1
    27   15   31 1
    28   16   17 2
    29   16   18 am
    30   18   32 1
    31   18   33 1
    32   19   20 2
    33   19   21 1
@<TRIPOS>MOLECULE
ZINC42333144
   36    37     0     0     0
SMALL
USER_CHARGES

@<TRIPOS>ATOM
      1 C1         -0.0126    1.3844    0.1129 C.ar      1 <0>        -0.0139
      2 C2          1.1701    2.0878    0.1158 C.ar      1 <0>        -0.2243
      3 C3          2.3815    1.4162   -0.0239 C.ar      1 <0>         0.2735
      4 C4          2.4006    0.0315   -0.1669 C.ar      1 <0>        -0.1650
      5 C5          1.2213   -0.6776   -0.1710 C.ar      1 <0>        -0.0477
      6 C6          0.0032   -0.0061   -0.0305 C.ar      1 <0>        -0.2222
      7 C7         -1.2628   -0.7633   -0.0335 C.2       1 <0>         0.5735
      8 O1         -2.3216   -0.1780    0.0889 O.2       1 <0>        -0.5624
      9 N1         -1.2459   -2.1039   -0.1718 N.am      1 <0>        -0.8585
     10 N2          3.5749    2.1299   -0.0211 N.pl3     1 <0>        -0.7121
     11 C8          4.8528    1.4198    0.0735 C.3       1 <0>         0.0838
     12 C9          4.8354    0.5152    1.3021 C.3       1 <0>        -0.1120
     13 C10         4.3772    1.3083    2.5286 C.3       1 <0>        -0.5909
     14 S1          5.5827    2.6272    2.8600 S.o2      1 <0>         2.4112
     15 O2          5.0223    3.5236    3.8096 O.2       1 <0>        -0.9538
     16 O3          6.8432    2.0297    3.1309 O.2       1 <0>        -0.9393
     17 C11         5.6728    3.4702    1.2525 C.3       1 <0>        -0.6018
     18 C12         5.9868    2.4364    0.1680 C.3       1 <0>        -0.0922
     19 C13         5.0443    0.5761   -1.1604 C.2       1 <0>         0.4944
     20 O4          4.1930    0.5706   -2.0333 O.co2     1 <0>        -0.6624
     21 O5          6.0504   -0.1010   -1.2859 O.co2     1 <0>        -0.6828
     22 H1         -0.9518    1.9055    0.2258 H         1 <0>         0.1263
     23 H2          1.1585    3.1621    0.2261 H         1 <0>         0.1202
     24 H3          3.3420   -0.4867   -0.2751 H         1 <0>         0.1409
     25 H4          1.2367   -1.7517   -0.2826 H         1 <0>         0.1161
     26 H5         -0.4013   -2.5708   -0.2694 H         1 <0>         0.4003
     27 H6         -2.0784   -2.6017   -0.1738 H         1 <0>         0.3978
     28 H7          3.5612    3.0979   -0.0817 H         1 <0>         0.3923
     29 H8          4.1496   -0.3145    1.1308 H         1 <0>         0.0966
     30 H9          5.8375    0.1241    1.4777 H         1 <0>         0.0968
     31 H10         3.3990    1.7482    2.3345 H         1 <0>         0.1331
     32 H11         4.3163    0.6443    3.3909 H         1 <0>         0.1317
     33 H12         4.7169    3.9473    1.0364 H         1 <0>         0.1273
     34 H13         6.4608    4.2228    1.2786 H         1 <0>         0.1343
     35 H14         6.9147    1.9214    0.4168 H         1 <0>         0.1025
     36 H15         6.1009    2.9415   -0.7911 H         1 <0>         0.0885
@<TRIPOS>BOND
     1    1    6 ar
     2    1    2 ar
     3    1   22 1
     4    2    3 ar
     5    2   23 1
     6    3    4 ar
     7    3   10 1
     8    4    5 ar
     9    4   24 1
    10    5    6 ar
    11    5   25 1
    12    6    7 1
    13    7    8 2
    14    7    9 am
    15    9   26 1
    16    9   27 1
    17   10   11 1
    18   10   28 1
    19   11   18 1
    20   11   12 1
    21   11   19 1
    22   12   13 1
    23   12   29 1
    24   12   30 1
    25   13   14 1
    26   13   31 1
    27   13   32 1
    28   14   15 2
    29   14   16 2
    30   14   17 1
    31   17   18 1
    32   17   33 1
    33   17   34 1
    34   18   35 1
    35   18   36 1
    36   19   20 2
    37   19   21 1
@<TRIPOS>MOLECULE
ZINC50421458
   32    32     0     0     0
SMALL
USER_CHARGES

@<TRIPOS>ATOM
      1 C1         -0.0178    1.4608    0.0101 C.3       1 <0>         0.0674
      2 N1          0.0021   -0.0041    0.0020 N.pl3     1 <0>        -0.4695
      3 C2          0.0087   -0.8131   -1.0848 C.2       1 <0>         0.1566
      4 N2          0.0272   -2.0444   -0.6522 N.2       1 <0>        -0.2956
      5 N3          0.0324   -2.0514    0.6337 N.2       1 <0>        -0.2698
      6 C3          0.0235   -0.8248    1.0798 C.2       1 <0>         0.1538
      7 C4          0.0319   -0.4002    2.5258 C.3       1 <0>         0.2319
      8 N4         -1.3464   -0.2810    3.0078 N.am      1 <0>        -0.7454
      9 C5         -1.5852    0.0891    4.2815 C.2       1 <0>         0.7121
     10 O1         -0.6568    0.3239    5.0306 O.2       1 <0>        -0.5883
     11 N5         -2.8532    0.1988    4.7249 N.am      1 <0>        -0.7281
     12 C6         -3.1129    0.6010    6.1095 C.3       1 <0>         0.1199
     13 C7         -4.6000    0.6472    6.3487 C.2       1 <0>         0.4970
     14 O2         -5.3675    0.3713    5.4511 O.2       1 <0>        -0.5609
     15 N6         -5.0772    0.9952    7.5602 N.am      1 <0>        -0.6902
     16 C8         -6.5229    1.0401    7.7928 C.3       1 <0>         0.0500
     17 C9         -6.7900    1.4539    9.2171 C.2       1 <0>         0.4901
     18 O3         -5.8589    1.6894    9.9682 O.co2     1 <0>        -0.6903
     19 O4         -7.9370    1.5531    9.6182 O.co2     1 <0>        -0.6868
     20 H1          1.0048    1.8381    0.0023 H         1 <0>         0.0870
     21 H2         -0.5450    1.8219   -0.8730 H         1 <0>         0.0961
     22 H3         -0.5280    1.8123    0.9069 H         1 <0>         0.0950
     23 H4         -0.0002   -0.4977   -2.1177 H         1 <0>         0.2216
     24 H5          0.5615   -1.1449    3.1200 H         1 <0>         0.1051
     25 H6          0.5339    0.5628    2.6187 H         1 <0>         0.0875
     26 H7         -2.0871   -0.4684    2.4101 H         1 <0>         0.4001
     27 H8         -3.5939    0.0114    4.1273 H         1 <0>         0.4082
     28 H9         -2.6578   -0.1199    6.7887 H         1 <0>         0.0992
     29 H10        -2.6854    1.5878    6.2874 H         1 <0>         0.0985
     30 H11        -4.4634    1.2158    8.2782 H         1 <0>         0.4118
     31 H12        -6.9779    1.7610    7.1136 H         1 <0>         0.0678
     32 H13        -6.9504    0.0533    7.6149 H         1 <0>         0.0682
@<TRIPOS>BOND
     1    1    2 1
     2    1   20 1
     3    1   21 1
     4    1   22 1
     5    2    6 1
     6    2    3 1
     7    3    4 2
     8    3   23 1
     9    4    5 1
    10    5    6 2
    11    6    7 1
    12    7    8 1
    13    7   24 1
    14    7   25 1
    15    8    9 am
    16    8   26 1
    17    9   10 2
    18    9   11 am
    19   11   12 1
    20   11   27 1
    21   12   13 1
    22   12   28 1
    23   12   29 1
    24   13   14 2
    25   13   15 am
    26   15   16 1
    27   15   30 1
    28   16   17 1
    29   16   31 1
    30   16   32 1
    31   17   18 2
    32   17   19 1
@<TRIPOS>MOLECULE
ZINC12502770
   30    30     0     0     0
SMALL
USER_CHARGES
[(2R,3S,4S,5R,6R)-2,5-dihydroxy-6-(hydroxymethyl)-4-sulfooxy-tetrahydropyran-3-yl] hydrogen sulfate
@<TRIPOS>ATOM
      1 C1         -0.0127    1.0858    0.0080 C.3       1 <0>         0.0853
      2 C2         -0.7288    1.5792    1.2668 C.3       1 <0>         0.0733
      3 H1         -0.8223    2.6646    1.2300 H         1 <0>         0.0769
      4 C3          0.0786    1.1780    2.5040 C.3       1 <0>         0.0503
      5 H2          0.2072    0.0957    2.5198 H         1 <0>         0.0893
      6 C4         -0.6745    1.6221    3.7618 C.3       1 <0>         0.1482
      7 H3         -0.7597    2.7087    3.7709 H         1 <0>         0.1035
      8 C5         -2.0735    0.9985    3.7530 C.3       1 <0>         0.0937
      9 H4         -2.6360    1.3535    4.6165 H         1 <0>         0.1304
     10 C6         -2.7978    1.4069    2.4675 C.3       1 <0>         0.2414
     11 H5         -2.9183    2.4901    2.4467 H         1 <0>         0.0670
     12 O1         -2.0293    0.9910    1.3367 O.3       1 <0>        -0.3821
     13 O2         -4.0829    0.7836    2.4257 O.3       1 <0>        -0.4716
     14 O3         -1.9622   -0.4252    3.8066 O.3       1 <0>        -0.7511
     15 S1         -3.0711   -1.1035    4.5982 S.o2      1 <0>         2.7678
     16 O4         -2.7006   -2.4692    4.7278 O.2       1 <0>        -1.0769
     17 O5         -3.3325   -0.2751    5.7228 O.2       1 <0>        -1.0913
     18 O6          0.0349    1.1884    4.9240 O.3       1 <0>        -0.7573
     19 S2          0.9637    2.2415    5.5112 S.o2      1 <0>         2.7651
     20 O7          1.7332    1.5910    6.5132 O.2       1 <0>        -1.0705
     21 O8          1.5593    2.9163    4.4115 O.2       1 <0>        -1.0582
     22 O9          1.3588    1.8117    2.4649 O.3       1 <0>        -0.4987
     23 O10        -0.7038    1.5592   -1.1497 O.3       1 <0>        -0.5627
     24 H6          0.0021   -0.0041    0.0020 H         1 <0>         0.0606
     25 H7          1.0099    1.4631    0.0003 H         1 <0>         0.0643
     26 H8         -4.5985    0.9978    1.6361 H         1 <0>         0.3686
     27 H9          1.8894    1.5790    1.6907 H         1 <0>         0.3519
     28 H10        -0.3044    1.2838   -1.9862 H         1 <0>         0.3736
     29 O11        -4.3240   -1.0727    3.7347 O.3       1 <0>        -1.0763
     30 O12         0.0910    3.2623    6.2272 O.3       1 <0>        -1.1142
@<TRIPOS>BOND
     1    1    2 1
     2    1   23 1
     3    1   24 1
     4    1   25 1
     5    2    3 1
     6    2   12 1
     7    2    4 1
     8    4    5 1
     9    4    6 1
    10    4   22 1
    11    6    7 1
    12    6    8 1
    13    6   18 1
    14    8    9 1
    15    8   10 1
    16    8   14 1
    17   10   11 1
    18   10   12 1
    19   10   13 1
    20   13   26 1
    21   14   15 1
    22   15   16 2
    23   15   17 2
    24   15   29 1
    25   18   19 1
    26   19   20 2
    27   19   21 2
    28   19   30 1
    29   22   27 1
    30   23   28 1
@<TRIPOS>MOLECULE
ZINC26542810
   23    25     0     0     0
SMALL
USER_CHARGES
3-hydroxy-5H-pyridazino[4,3-b]indole-8-sulfonic acid
@<TRIPOS>ATOM
      1 C1         -0.7147    3.1485    2.0033 C.ar      1 <0>        -0.0100
      2 C2         -1.4226    3.5437    3.1185 C.ar      1 <0>        -0.1763
      3 C3         -2.3511    2.6833    3.6951 C.ar      1 <0>         0.1553
      4 C4         -2.5605    1.4176    3.1263 C.ar      1 <0>        -0.0886
      5 C5         -1.8426    1.0335    1.9963 C.ar      1 <0>         0.0316
      6 C6         -0.9267    1.9002    1.4394 C.ar      1 <0>        -0.6953
      7 S1         -0.0172    1.4168    0.0098 S.o2      1 <0>         2.7080
      8 O1          0.0021   -0.0041    0.0020 O.2       1 <0>        -1.0593
      9 O2          1.1718    2.1948    0.0027 O.2       1 <0>        -1.0668
     10 O3         -0.8262    1.8475   -1.2052 O.3       1 <0>        -1.0854
     11 C7         -3.5864    0.7527    3.9497 C.ar      1 <0>        -0.0624
     12 C8         -3.9283    1.6671    4.9648 C.ar      1 <0>         0.1775
     13 N1         -3.1815    2.8112    4.7958 N.pl3     1 <0>        -0.6343
     14 H1         -3.1713    3.7383    5.3877 H         1 <0>         0.4288
     15 C9         -4.8923    1.2794    5.8918 C.ar      1 <0>        -0.2852
     16 C10        -5.4519    0.0158    5.7524 C.ar      1 <0>         0.3785
     17 N2         -5.0667   -0.7787    4.7633 N.ar      1 <0>        -0.3527
     18 N3         -4.1784   -0.4307    3.9030 N.ar      1 <0>        -0.1558
     19 O4         -6.3955   -0.4071    6.6316 O.3       1 <0>        -0.7101
     20 H2          0.0084    3.8191    1.5629 H         1 <0>         0.1337
     21 H3         -1.2531    4.5204    3.5471 H         1 <0>         0.1167
     22 H4         -2.0027    0.0595    1.5580 H         1 <0>         0.1376
     23 H5         -5.1943    1.9386    6.6922 H         1 <0>         0.1146
@<TRIPOS>BOND
     1    1    6 ar
     2    1    2 ar
     3    1   20 1
     4    2    3 ar
     5    2   21 1
     6    3   13 1
     7    3    4 ar
     8    4    5 ar
     9    4   11 1
    10    5    6 ar
    11    5   22 1
    12    6    7 1
    13    7    8 2
    14    7    9 2
    15    7   10 1
    16   11   18 ar
    17   11   12 ar
    18   12   13 1
    19   12   15 ar
    20   13   14 1
    21   15   16 ar
    22   15   23 1
    23   16   17 ar
    24   16   19 1
    25   17   18 ar
@<TRIPOS>MOLECULE
ZINC38549371
   32    34     0     0     0
SMALL
USER_CHARGES

@<TRIPOS>ATOM
      1 C1         -0.0187    1.5258    0.0104 C.3       1 <0>         0.0839
      2 C2          0.0021   -0.0041    0.0020 C.3       1 <0>         0.0607
      3 H1          0.6117   -0.3781    0.8246 H         1 <0>         0.1044
      4 C3         -1.4398   -0.5620    0.1043 C.3       1 <0>         0.0401
      5 H2         -2.1399    0.0524   -0.4618 H         1 <0>         0.0781
      6 C4         -1.2628   -1.9583   -0.5523 C.3       1 <0>         0.0783
      7 H3         -2.1955   -2.2952   -1.0049 H         1 <0>         0.0815
      8 C5         -0.1968   -1.6792   -1.6335 C.3       1 <0>         0.3438
      9 H4         -0.6798   -1.5316   -2.5995 H         1 <0>         0.1183
     10 O1          0.5060   -0.4890   -1.2527 O.3       1 <0>        -0.3150
     11 N1          0.7378   -2.8045   -1.7122 N.pl3     1 <0>        -0.5543
     12 C6          1.6656   -3.2539   -0.6644 C.3       1 <0>         0.4224
     13 H5          1.1095   -3.5472    0.2260 H         1 <0>         0.1155
     14 N2          2.3865   -4.4093   -1.2098 N.2       1 <0>        -0.3650
     15 C7          1.9658   -4.6339   -2.4071 C.2       1 <0>         0.0122
     16 C8          0.9157   -3.6469   -2.7698 C.2       1 <0>         0.4166
     17 N3          0.3679   -3.7345   -3.9640 N.2       1 <0>        -0.5948
     18 C9          0.7310   -4.6776   -4.8342 C.2       1 <0>         0.5674
     19 N4          1.6493   -5.5977   -4.6023 N.2       1 <0>        -0.7486
     20 C10         2.3154   -5.6513   -3.4421 C.2       1 <0>         0.5615
     21 O2          3.1608   -6.5031   -3.2344 O.2       1 <0>        -0.5730
     22 N5          0.1070   -4.6931   -6.0545 N.2       1 <0>        -0.8251
     23 S1          2.8335   -1.9268   -0.2579 S.3       1 <0>        -0.9994
     24 O3         -0.7890   -2.9120    0.4006 O.3       1 <0>        -0.5218
     25 O4         -1.8503   -0.6815    1.4678 O.3       1 <0>        -0.5494
     26 O5          1.3220    2.0204    0.0003 O.3       1 <0>        -0.5419
     27 H6         -0.5459    1.8868   -0.8726 H         1 <0>         0.0447
     28 H7         -0.5289    1.8773    0.9072 H         1 <0>         0.0442
     29 H8          0.3454   -5.3646   -6.7126 H         1 <0>         0.3007
     30 H9         -1.3888   -3.0552    1.1454 H         1 <0>         0.3719
     31 H10        -1.8703    0.1579    1.9475 H         1 <0>         0.3782
     32 H11         1.3852    2.9853    0.0049 H         1 <0>         0.3640
@<TRIPOS>BOND
     1    1    2 1
     2    1   26 1
     3    1   27 1
     4    1   28 1
     5    2    3 1
     6    2   10 1
     7    2    4 1
     8    4    5 1
     9    4    6 1
    10    4   25 1
    11    6    7 1
    12    6    8 1
    13    6   24 1
    14    8    9 1
    15    8   10 1
    16    8   11 1
    17   11   16 1
    18   11   12 1
    19   12   13 1
    20   12   14 1
    21   12   23 1
    22   14   15 2
    23   15   20 1
    24   15   16 1
    25   16   17 2
    26   17   18 1
    27   18   19 2
    28   18   22 1
    29   19   20 1
    30   20   21 2
    31   22   29 1
    32   24   30 1
    33   25   31 1
    34   26   32 1
@<TRIPOS>MOLECULE
ZINC50197280
   32    32     0     0     0
SMALL
USER_CHARGES

@<TRIPOS>ATOM
      1 C1         -0.0187    1.5258    0.0104 C.3       1 <0>        -0.1600
      2 C2          0.0021   -0.0041    0.0020 C.3       1 <0>         0.1869
      3 C3          0.7421   -0.5109    1.2415 C.3       1 <0>        -0.1600
      4 C4         -1.4333   -0.5336    0.0129 C.3       1 <0>        -0.0918
      5 C5         -2.1494   -0.0402    1.2717 C.3       1 <0>        -0.1783
      6 C6         -3.5633   -0.5619    1.2824 C.2       1 <0>         0.4897
      7 O1         -3.9612   -1.2632    0.3679 O.co2     1 <0>        -0.6998
      8 O2         -4.3091   -0.2825    2.2055 O.co2     1 <0>        -0.7122
      9 N1          0.6878   -0.4765   -1.2033 N.am      1 <0>        -0.7396
     10 C7          1.9715   -0.1323   -1.4270 C.2       1 <0>         0.7071
     11 O3          2.5605    0.5704   -0.6285 O.2       1 <0>        -0.5988
     12 N2          2.6023   -0.5669   -2.5359 N.am      1 <0>        -0.7365
     13 C8          3.9977   -0.1927   -2.7790 C.3       1 <0>         0.2601
     14 C9          4.4628   -0.8030   -4.0761 C.2       1 <0>         0.0352
     15 N3          5.0252   -1.9925   -4.2327 N.2       1 <0>        -0.3734
     16 N4          5.2752   -2.1431   -5.4886 N.2       1 <0>        -0.1985
     17 N5          4.8892   -1.0907   -6.1221 N.2       1 <0>        -0.1985
     18 N6          4.3827   -0.2558   -5.2802 N.2       1 <0>        -0.3734
     19 H1          1.0039    1.9031    0.0027 H         1 <0>         0.0741
     20 H2         -0.5459    1.8868   -0.8726 H         1 <0>         0.0479
     21 H3         -0.5289    1.8773    0.9072 H         1 <0>         0.0617
     22 H4          0.2319   -0.1594    2.1383 H         1 <0>         0.0617
     23 H5          0.7568   -1.6008    1.2356 H         1 <0>         0.0479
     24 H6          1.7647   -0.1336    1.2338 H         1 <0>         0.0741
     25 H7         -1.9605   -0.1726   -0.8702 H         1 <0>         0.0631
     26 H8         -1.4185   -1.6235    0.0069 H         1 <0>         0.0631
     27 H9         -1.6223   -0.4013    2.1547 H         1 <0>         0.0610
     28 H10        -2.1642    1.0497    1.2777 H         1 <0>         0.0610
     29 H11         0.2179   -1.0371   -1.8404 H         1 <0>         0.3931
     30 H12         2.1325   -1.1275   -3.1729 H         1 <0>         0.3944
     31 H13         4.0776    0.8927   -2.8390 H         1 <0>         0.0694
     32 H14         4.6196   -0.5582   -1.9619 H         1 <0>         0.0693
@<TRIPOS>BOND
     1    1    2 1
     2    1   19 1
     3    1   20 1
     4    1   21 1
     5    2    3 1
     6    2    4 1
     7    2    9 1
     8    3   22 1
     9    3   23 1
    10    3   24 1
    11    4    5 1
    12    4   25 1
    13    4   26 1
    14    5    6 1
    15    5   27 1
    16    5   28 1
    17    6    7 2
    18    6    8 1
    19    9   10 am
    20    9   29 1
    21   10   11 2
    22   10   12 am
    23   12   13 1
    24   12   30 1
    25   13   14 1
    26   13   31 1
    27   13   32 1
    28   14   18 2
    29   14   15 1
    30   15   16 1
    31   16   17 2
    32   17   18 1
@<TRIPOS>MOLECULE
ZINC62832111
   29    29     0     0     0
SMALL
USER_CHARGES

@<TRIPOS>ATOM
      1 C1         -0.8118   -0.8004   -3.4380 C.3       1 <0>        -0.1339
      2 C2          0.5331   -0.1831   -3.0495 C.3       1 <0>         0.1080
      3 H1          1.3307   -0.6639   -3.6159 H         1 <0>         0.0473
      4 C3          0.5166    1.2919   -3.3582 C.2       1 <0>         0.4959
      5 O1          0.1392    2.0871   -2.5145 O.co2     1 <0>        -0.6438
      6 O2          0.8808    1.6900   -4.4515 O.co2     1 <0>        -0.7417
      7 N1          0.7649   -0.3795   -1.6164 N.pl3     1 <0>        -0.6252
      8 C4         -0.1905    0.1503   -0.6404 C.3       1 <0>         0.1438
      9 C5          1.8913   -1.0686   -1.1827 C.ar      1 <0>         0.1679
     10 C6          1.8941   -2.4579   -1.1634 C.ar      1 <0>        -0.1138
     11 C7          3.0109   -3.1425   -0.7328 C.ar      1 <0>        -0.2026
     12 C8          4.1440   -2.4500   -0.3147 C.ar      1 <0>         0.1659
     13 C9          4.1590   -1.0675   -0.3277 C.ar      1 <0>        -0.1562
     14 C10         3.0327   -0.3631   -0.7679 C.ar      1 <0>        -0.1005
     15 C11         3.0422    1.1071   -0.7907 C.2       1 <0>         0.4921
     16 O3          4.0724    1.7163   -0.5364 O.co2     1 <0>        -0.7292
     17 O4          2.0199    1.7213   -1.0641 O.co2     1 <0>        -0.5916
     18 N2          5.2720   -3.1559    0.1209 N.pl3     1 <0>        -0.8945
     19 H2         -0.7805   -1.8765   -3.2671 H         1 <0>         0.0298
     20 H3         -1.6028   -0.3592   -2.8316 H         1 <0>         0.0468
     21 H4         -1.0103   -0.6055   -4.4919 H         1 <0>         0.0449
     22 H5         -0.9534   -0.6005   -0.4342 H         1 <0>        -0.0201
     23 H6          0.3332    0.3992    0.2826 H         1 <0>         0.0276
     24 H7         -0.6623    1.0465   -1.0434 H         1 <0>         0.0915
     25 H8          1.0193   -3.0029   -1.4861 H         1 <0>         0.1062
     26 H9          3.0065   -4.2224   -0.7195 H         1 <0>         0.0993
     27 H10         5.0392   -0.5326   -0.0028 H         1 <0>         0.1147
     28 H11         5.2632   -4.1258    0.1310 H         1 <0>         0.3832
     29 H12         6.0624   -2.6751    0.4126 H         1 <0>         0.3884
@<TRIPOS>BOND
     1    1    2 1
     2    1   19 1
     3    1   20 1
     4    1   21 1
     5    2    3 1
     6    2    4 1
     7    2    7 1
     8    4    5 2
     9    4    6 1
    10    7    8 1
    11    7    9 1
    12    8   22 1
    13    8   23 1
    14    8   24 1
    15    9   14 ar
    16    9   10 ar
    17   10   11 ar
    18   10   25 1
    19   11   12 ar
    20   11   26 1
    21   12   13 ar
    22   12   18 1
    23   13   14 ar
    24   13   27 1
    25   14   15 1
    26   15   16 2
    27   15   17 1
    28   18   28 1
    29   18   29 1
@<TRIPOS>MOLECULE
ZINC05134856
   17    17     0     0     0
SMALL
USER_CHARGES
3,6-dihydro-2H-1,4-thiazine-3,5-dicarboxylic acid
@<TRIPOS>ATOM
      1 C1         -2.6229    1.4171    1.0387 C.3       1 <0>        -0.0730
      2 C2         -2.9024    2.2384   -0.2215 C.3       1 <0>         0.0441
      3 H1         -2.9178    3.2957    0.0430 H         1 <0>         0.0987
      4 N1         -1.9099    2.0284   -1.2501 N.2       1 <0>        -0.4535
      5 C3         -0.7465    1.5871   -1.2040 C.2       1 <0>         0.1387
      6 C4         -0.0127    1.0858    0.0080 C.3       1 <0>        -0.0555
      7 S1         -0.8733    1.6772    1.4994 S.3       1 <0>        -0.3245
      8 C5         -0.0029    1.5528   -2.4860 C.2       1 <0>         0.5023
      9 O1          1.1364    1.1353   -2.5158 O.co2     1 <0>        -0.6477
     10 C6         -4.2551    1.8544   -0.7636 C.2       1 <0>         0.4848
     11 O2         -4.3363    1.1286   -1.7261 O.co2     1 <0>        -0.6055
     12 H2         -3.2710    1.7517    1.8487 H         1 <0>         0.1104
     13 H3         -2.7992    0.3605    0.8374 H         1 <0>         0.0793
     14 H4          0.0033    0.0860   -0.0019 H         1 <0>         0.0840
     15 H5          1.0090    1.4656    0.0003 H         1 <0>         0.1198
     16 O3         -0.5915    1.9850   -3.6175 O.co2     1 <0>        -0.7238
     17 O4         -5.3696    2.3188   -0.1771 O.co2     1 <0>        -0.7786
@<TRIPOS>BOND
     1    1    7 1
     2    1    2 1
     3    1   12 1
     4    1   13 1
     5    2    3 1
     6    2    4 1
     7    2   10 1
     8    4    5 2
     9    5    6 1
    10    5    8 1
    11    6    7 1
    12    6   14 1
    13    6   15 1
    14    8    9 2
    15    8   16 1
    16   10   11 2
    17   10   17 1
@<TRIPOS>MOLECULE
ZINC02597098
   13    13     0     0     0
SMALL
USER_CHARGES
1H-pyrazole-3,5-dicarboxylic acid
@<TRIPOS>ATOM
      1 C1         -1.1287    2.2696    0.0190 C.2       1 <0>        -0.1723
      2 C2         -0.0179    1.4664    0.0101 C.2       1 <0>        -0.0316
      3 N1          1.0685    2.2979    0.0042 N.pl3     1 <0>        -0.3875
      4 H1          2.0221    1.9971   -0.0062 H         1 <0>         0.4423
      5 N2          0.6811    3.5226    0.0140 N.2       1 <0>        -0.2649
      6 C3         -0.6372    3.5904    0.0266 C.2       1 <0>        -0.0152
      7 C4         -1.4482    4.8240    0.0397 C.2       1 <0>         0.5393
      8 O1         -2.6609    4.7536    0.0503 O.co2     1 <0>        -0.6356
      9 C5          0.0021   -0.0041    0.0020 C.2       1 <0>         0.5279
     10 O2         -1.0421   -0.6260    0.0082 O.co2     1 <0>        -0.6222
     11 H2         -2.1623    1.9564    0.0213 H         1 <0>         0.1491
     12 O3         -0.8433    6.0278    0.0400 O.co2     1 <0>        -0.7586
     13 O4          1.1785   -0.6622   -0.0122 O.co2     1 <0>        -0.7706
@<TRIPOS>BOND
     1    1    6 1
     2    1    2 2
     3    1   11 1
     4    2    3 1
     5    2    9 1
     6    3    4 1
     7    3    5 1
     8    5    6 2
     9    6    7 1
    10    7    8 2
    11    7   12 1
    12    9   10 2
    13    9   13 1
@<TRIPOS>MOLECULE
ZINC38021100
   33    33     0     0     0
SMALL
USER_CHARGES

@<TRIPOS>ATOM
      1 C1         -0.0187    1.5258    0.0104 C.3       1 <0>        -0.1444
      2 C2          0.0021   -0.0041    0.0020 C.3       1 <0>        -0.1533
      3 C3         -1.4333   -0.5336    0.0129 C.3       1 <0>         0.1292
      4 N1         -1.4134   -1.9985    0.0048 N.pl3     1 <0>        -0.9689
      5 C4         -1.2809   -2.7362    1.2636 C.3       1 <0>         0.0596
      6 C5         -2.6395   -2.9020    1.8941 C.2       1 <0>         0.4863
      7 O1         -3.6271   -2.4463    1.3431 O.co2     1 <0>        -0.6865
      8 O2         -2.7512   -3.4920    2.9552 O.co2     1 <0>        -0.7073
      9 S1         -1.5408   -2.8204   -1.4271 S.o2      1 <0>         2.7073
     10 O3         -2.0455   -4.1107   -1.1113 O.2       1 <0>        -0.9629
     11 O4         -2.1951   -1.9488   -2.3389 O.2       1 <0>        -0.9802
     12 C6          0.0943   -3.0554   -2.0402 C.ar      1 <0>        -0.7870
     13 C7          0.6650   -2.1046   -2.8664 C.ar      1 <0>         0.0338
     14 C8          1.9466   -2.2864   -3.3483 C.ar      1 <0>        -0.2511
     15 C9          2.6616   -3.4241   -3.0024 C.ar      1 <0>         0.3327
     16 C10         2.0871   -4.3761   -2.1731 C.ar      1 <0>        -0.2076
     17 C11         0.8066   -4.1872   -1.6899 C.ar      1 <0>         0.0959
     18 N2          2.8469   -5.5910   -1.8026 N.pl3     1 <0>         0.0704
     19 O5          2.3457   -6.4205   -1.0799 O.2       1 <0>        -0.2488
     20 O6          3.9688   -5.7540   -2.2228 O.3       1 <0>        -0.1633
     21 O7          3.9226   -3.6055   -3.4756 O.3       1 <0>        -0.6389
     22 H1          1.0039    1.9031    0.0027 H         1 <0>         0.0502
     23 H2         -0.5459    1.8868   -0.8726 H         1 <0>         0.0541
     24 H3         -0.5289    1.8773    0.9072 H         1 <0>         0.0528
     25 H4          0.5123   -0.3556   -0.8948 H         1 <0>         0.0647
     26 H5          0.5293   -0.3651    0.8851 H         1 <0>         0.0650
     27 H6         -1.9435   -0.1821    0.9097 H         1 <0>         0.0792
     28 H7         -1.9605   -0.1726   -0.8702 H         1 <0>         0.0826
     29 H8         -0.8498   -3.7176    1.0659 H         1 <0>         0.0764
     30 H9         -0.6306   -2.1837    1.9418 H         1 <0>         0.0710
     31 H10         0.1080   -1.2192   -3.1353 H         1 <0>         0.1262
     32 H11         2.3916   -1.5439   -3.9941 H         1 <0>         0.1230
     33 H12         0.3602   -4.9264   -1.0412 H         1 <0>         0.1400
@<TRIPOS>BOND
     1    1    2 1
     2    1   22 1
     3    1   23 1
     4    1   24 1
     5    2    3 1
     6    2   25 1
     7    2   26 1
     8    3    4 1
     9    3   27 1
    10    3   28 1
    11    4    5 1
    12    4    9 1
    13    5    6 1
    14    5   29 1
    15    5   30 1
    16    6    7 2
    17    6    8 1
    18    9   10 2
    19    9   11 2
    20    9   12 1
    21   12   17 ar
    22   12   13 ar
    23   13   14 ar
    24   13   31 1
    25   14   15 ar
    26   14   32 1
    27   15   16 ar
    28   15   21 1
    29   16   17 ar
    30   16   18 1
    31   17   33 1
    32   18   19 2
    33   18   20 1
@<TRIPOS>MOLECULE
ZINC33944365
   15    15     0     0     0
SMALL
USER_CHARGES

@<TRIPOS>ATOM
      1 C1         -0.1158    1.2458    0.0607 C.3       1 <0>         0.0878
      2 C2          1.2400    1.9043   -0.0610 C.2       1 <0>        -0.2005
      3 C3          2.1711    1.0003    0.2981 C.2       1 <0>        -0.2004
      4 C4          1.4555   -0.2799    0.6666 C.3       1 <0>         0.0878
      5 O1          0.1371   -0.1708    0.0991 O.3       1 <0>        -0.3958
      6 C5          3.6320    1.2198    0.3261 C.2       1 <0>         0.5209
      7 O2          4.0871    2.3331    0.1077 O.co2     1 <0>        -0.6081
      8 O3          4.3855    0.2880    0.5676 O.co2     1 <0>        -0.7352
      9 C6          1.4973    3.2924   -0.4970 C.2       1 <0>         0.5209
     10 O4          2.6314    3.7465   -0.4531 O.co2     1 <0>        -0.6081
     11 O5          0.5762    3.9866   -0.9017 O.co2     1 <0>        -0.7351
     12 H1         -0.6075    1.5649    0.9797 H         1 <0>         0.0512
     13 H2         -0.7332    1.4942   -0.8025 H         1 <0>         0.0817
     14 H3          1.9775   -1.1377    0.2427 H         1 <0>         0.0817
     15 H4          1.3915   -0.3761    1.7505 H         1 <0>         0.0512
@<TRIPOS>BOND
     1    1    5 1
     2    1    2 1
     3    1   12 1
     4    1   13 1
     5    2    3 2
     6    2    9 1
     7    3    4 1
     8    3    6 1
     9    4    5 1
    10    4   14 1
    11    4   15 1
    12    6    7 2
    13    6    8 1
    14    9   10 2
    15    9   11 1
@<TRIPOS>MOLECULE
ZINC18057334
   24    24     0     0     0
SMALL
USER_CHARGES

@<TRIPOS>ATOM
      1 C1         -0.4786    1.4845   -0.2489 C.3       1 <0>        -0.1447
      2 C2         -0.4516   -0.0450   -0.2771 C.3       1 <0>         0.0522
      3 O1          0.4261   -0.4869   -1.3146 O.3       1 <0>        -0.3473
      4 C3          0.5635   -1.8178   -1.4740 C.2       1 <0>         0.4422
      5 O2         -0.0447   -2.5817   -0.7523 O.2       1 <0>        -0.4632
      6 C4          1.4559   -2.3485   -2.5286 C.2       1 <0>         0.3105
      7 O3          2.0760   -1.5004   -3.3789 O.3       1 <0>        -0.6246
      8 C5          1.6526   -3.6941   -2.6425 C.2       1 <0>        -0.4550
      9 C6          2.4019   -4.3943   -3.7038 C.2       1 <0>         0.4188
     10 O4          3.0192   -3.7975   -4.7451 O.3       1 <0>        -0.6591
     11 C7          2.3743   -5.7500   -3.4673 C.2       1 <0>        -0.5355
     12 C8          1.6491   -6.0428   -2.3015 C.2       1 <0>         0.3385
     13 O5          1.4539   -7.1511   -1.8407 O.2       1 <0>        -0.5750
     14 C9          1.1618   -4.7484   -1.7209 C.2       1 <0>         0.3544
     15 O6          0.5048   -4.5960   -0.7130 O.2       1 <0>        -0.4622
     16 C10         3.0349   -6.7829   -4.3436 C.3       1 <0>        -0.0108
     17 H1          0.5263    1.8622   -0.0601 H         1 <0>         0.0619
     18 H2         -0.8332    1.8594   -1.2090 H         1 <0>         0.0620
     19 H3         -1.1481    1.8215    0.5425 H         1 <0>         0.0654
     20 H4         -0.0970   -0.4199    0.6830 H         1 <0>         0.0555
     21 H5         -1.4565   -0.4227   -0.4659 H         1 <0>         0.0550
     22 H6          4.0551   -6.9525   -3.9994 H         1 <0>         0.0094
     23 H7          2.4739   -7.7160   -4.2915 H         1 <0>         0.0216
     24 H8          3.0534   -6.4272   -5.3738 H         1 <0>         0.0299
@<TRIPOS>BOND
     1    1    2 1
     2    1   17 1
     3    1   18 1
     4    1   19 1
     5    2    3 1
     6    2   20 1
     7    2   21 1
     8    3    4 1
     9    4    5 2
    10    4    6 1
    11    6    7 1
    12    6    8 2
    13    8   14 1
    14    8    9 1
    15    9   10 1
    16    9   11 2
    17   11   12 1
    18   11   16 1
    19   12   13 2
    20   12   14 1
    21   14   15 2
    22   16   22 1
    23   16   23 1
    24   16   24 1
@<TRIPOS>MOLECULE
ZINC15116063
   15    15     0     0     0
SMALL
USER_CHARGES

@<TRIPOS>ATOM
      1 C1         -0.0168    1.3872    0.0097 C.ar      1 <0>        -0.2336
      2 C2          1.1757    2.0809    0.0020 C.ar      1 <0>         0.1235
      3 N1          2.3364    1.4514   -0.0129 N.ar      1 <0>        -0.5294
      4 C3          2.4177    0.1320   -0.0208 C.ar      1 <0>         0.3484
      5 C4          1.2525   -0.6523   -0.0139 C.ar      1 <0>        -0.2305
      6 C5          0.0021   -0.0041    0.0020 C.ar      1 <0>         0.1906
      7 O1         -1.1505   -0.7157    0.0096 O.3       1 <0>        -0.4692
      8 C6          1.3363   -2.1179   -0.0231 C.2       1 <0>         0.5238
      9 O2          2.4293   -2.6683   -0.0369 O.co2     1 <0>        -0.6713
     10 O3          0.3131   -2.7893   -0.0169 O.co2     1 <0>        -0.6743
     11 O4          3.6316   -0.4670   -0.0360 O.3       1 <0>        -0.4557
     12 H1         -0.9565    1.9193    0.0260 H         1 <0>         0.1346
     13 H2          1.1595    3.1608    0.0080 H         1 <0>         0.1549
     14 H3         -1.4940   -0.9175   -0.8715 H         1 <0>         0.3928
     15 H4          3.9931   -0.6458    0.8429 H         1 <0>         0.3956
@<TRIPOS>BOND
     1    1    6 ar
     2    1    2 ar
     3    1   12 1
     4    2    3 ar
     5    2   13 1
     6    3    4 ar
     7    4    5 ar
     8    4   11 1
     9    5    6 ar
    10    5    8 1
    11    6    7 1
    12    7   14 1
    13    8    9 2
    14    8   10 1
    15   11   15 1
@<TRIPOS>MOLECULE
ZINC01691305
   26    27     0     0     0
SMALL
USER_CHARGES
3,6-dihydroxynaphthalene-2,7-disulfonic acid
@<TRIPOS>ATOM
      1 C1          0.8559    5.3907   -1.2256 C.ar      1 <0>        -0.1841
      2 C2          0.7726    6.1005   -0.0161 C.ar      1 <0>         0.0288
      3 C3          0.5882    7.4932   -0.0012 C.ar      1 <0>        -0.1846
      4 C4          0.5121    8.1514    1.1930 C.ar      1 <0>         0.2093
      5 C5          0.6144    7.4569    2.4025 C.ar      1 <0>        -0.7021
      6 C6          0.7932    6.1089    2.4218 C.ar      1 <0>         0.0201
      7 C7          0.8764    5.3989    1.2114 C.ar      1 <0>        -0.1176
      8 C8          1.0613    4.0054    1.1968 C.ar      1 <0>         0.0274
      9 C9          1.1384    3.3473    0.0092 C.ar      1 <0>        -0.7064
     10 C10         1.0416    4.0379   -1.2031 C.ar      1 <0>         0.2029
     11 O1          1.1281    3.3532   -2.3736 O.3       1 <0>        -0.4796
     12 S1          1.3708    1.6007   -0.0024 S.o2      1 <0>         2.7024
     13 O2          1.9822    1.2642    1.2353 O.2       1 <0>        -1.0600
     14 O3          1.9585    1.2775   -1.2552 O.2       1 <0>        -1.0407
     15 S2          0.5108    8.3411    3.9231 S.o2      1 <0>         2.7072
     16 O4         -0.8723    8.4916    4.2120 O.2       1 <0>        -1.0534
     17 O5          1.4126    7.7101    4.8220 O.2       1 <0>        -1.0590
     18 O6          0.3341    9.4985    1.2061 O.3       1 <0>        -0.4880
     19 H1          0.7785    5.9126   -2.1680 H         1 <0>         0.1297
     20 H2          0.5071    8.0402   -0.9289 H         1 <0>         0.1301
     21 H3          0.8712    5.5859    3.3635 H         1 <0>         0.1407
     22 H4          1.1414    3.4595    2.1252 H         1 <0>         0.1454
     23 H5          0.2774    3.0385   -2.7089 H         1 <0>         0.3905
     24 H6          1.1584   10.0041    1.2023 H         1 <0>         0.4004
     25 O7         -0.0110    0.9628    0.0073 O.3       1 <0>        -1.0840
     26 O8          1.0568    9.7389    3.6689 O.3       1 <0>        -1.0757
@<TRIPOS>BOND
     1    1   10 ar
     2    1    2 ar
     3    1   19 1
     4    2    7 ar
     5    2    3 ar
     6    3    4 ar
     7    3   20 1
     8    4    5 ar
     9    4   18 1
    10    5    6 ar
    11    5   15 1
    12    6    7 ar
    13    6   21 1
    14    7    8 ar
    15    8    9 ar
    16    8   22 1
    17    9   10 ar
    18    9   12 1
    19   10   11 1
    20   11   23 1
    21   12   13 2
    22   12   14 2
    23   12   25 1
    24   15   16 2
    25   15   17 2
    26   15   26 1
    27   18   24 1
@<TRIPOS>MOLECULE
ZINC37385812
   31    31     0     0     0
SMALL
USER_CHARGES

@<TRIPOS>ATOM
      1 C1         -0.0169    1.3921    0.0097 C.ar      1 <0>        -0.0912
      2 C2          1.1702    2.0948    0.0021 C.ar      1 <0>        -0.0018
      3 C3          2.3776    1.4194   -0.0130 C.ar      1 <0>        -0.6164
      4 C4          2.4037    0.0360   -0.0212 C.ar      1 <0>        -0.0130
      5 C5          1.2242   -0.6793   -0.0142 C.ar      1 <0>        -0.0880
      6 C6          0.0021   -0.0041    0.0020 C.ar      1 <0>         0.0072
      7 C7         -1.2263   -0.7401    0.0103 C.1       1 <0>         0.2688
      8 N1         -2.2007   -1.3240    0.0168 N.1       1 <0>        -0.4309
      9 S1          3.8890    2.3250   -0.0226 S.o2      1 <0>         2.6938
     10 O1          4.8721    1.4685   -0.5874 O.2       1 <0>        -0.9649
     11 O2          3.5921    3.6049   -0.5637 O.2       1 <0>        -0.9788
     12 N2          4.3241    2.5682    1.5566 N.pl3     1 <0>        -1.0716
     13 C8          4.6697    1.4253    2.4055 C.3       1 <0>         0.0739
     14 H1          5.0154    0.6009    1.7819 H         1 <0>         0.0770
     15 C9          5.7796    1.8294    3.3780 C.3       1 <0>        -0.0729
     16 C10         7.0532    2.1505    2.5933 C.3       1 <0>        -0.1806
     17 C11         8.1464    2.5485    3.5511 C.2       1 <0>         0.4904
     18 O3          7.9272    2.5732    4.7502 O.co2     1 <0>        -0.6991
     19 O4          9.2501    2.8460    3.1269 O.co2     1 <0>        -0.7201
     20 C12         3.4539    0.9914    3.1831 C.2       1 <0>         0.4864
     21 O5          2.3968    1.5821    3.0414 O.co2     1 <0>        -0.6884
     22 O6          3.5274    0.0496    3.9540 O.co2     1 <0>        -0.6956
     23 H2         -0.9586    1.9206    0.0260 H         1 <0>         0.1342
     24 H3          1.1570    3.1747    0.0077 H         1 <0>         0.1446
     25 H4          3.3496   -0.4850   -0.0333 H         1 <0>         0.1453
     26 H5          1.2459   -1.7590   -0.0213 H         1 <0>         0.1354
     27 H6          4.3502    3.4673    1.9196 H         1 <0>         0.4143
     28 H7          5.4675    2.7096    3.9400 H         1 <0>         0.0575
     29 H8          5.9750    1.0084    4.0677 H         1 <0>         0.0767
     30 H9          7.3653    1.2703    2.0312 H         1 <0>         0.0549
     31 H10         6.8577    2.9715    1.9035 H         1 <0>         0.0529
@<TRIPOS>BOND
     1    1    6 ar
     2    1    2 ar
     3    1   23 1
     4    2    3 ar
     5    2   24 1
     6    3    4 ar
     7    3    9 1
     8    4    5 ar
     9    4   25 1
    10    5    6 ar
    11    5   26 1
    12    6    7 1
    13    7    8 3
    14    9   10 2
    15    9   11 2
    16    9   12 1
    17   12   13 1
    18   12   27 1
    19   13   14 1
    20   13   15 1
    21   13   20 1
    22   15   16 1
    23   15   28 1
    24   15   29 1
    25   16   17 1
    26   16   30 1
    27   16   31 1
    28   17   18 2
    29   17   19 1
    30   20   21 2
    31   20   22 1
@<TRIPOS>MOLECULE
ZINC03854981
   32    33     0     0     0
SMALL
USER_CHARGES

@<TRIPOS>ATOM
      1 C1         -0.0187    1.5258    0.0104 C.3       1 <0>        -0.1438
      2 C2          0.0021   -0.0041    0.0020 C.3       1 <0>        -0.0510
      3 C3         -1.4336   -0.5368    0.0282 C.3       1 <0>        -0.1357
      4 C4         -2.1014   -0.1040    1.3070 C.2       1 <0>         0.3740
      5 C5         -1.3665    0.0995    2.4536 C.2       1 <0>        -0.5144
      6 C6         -0.0016   -0.0810    2.4780 C.2       1 <0>         0.3957
      7 O1          0.6144    0.1123    3.5167 O.3       1 <0>        -0.5521
      8 C7          0.7424   -0.5139    1.2420 C.3       1 <0>        -0.1429
      9 C8         -2.0734    0.5308    3.7127 C.3       1 <0>         0.1806
     10 C9         -2.6205    1.9278    3.4919 C.2       1 <0>         0.4812
     11 O2         -1.8080    2.9467    3.1690 O.3       1 <0>        -0.6377
     12 N1         -3.9090    2.1087    3.6266 N.2       1 <0>        -0.6889
     13 C10        -4.7471    1.1175    3.9476 C.2       1 <0>         0.6890
     14 O3         -5.9287    1.3888    4.0484 O.2       1 <0>        -0.6123
     15 N2         -4.3811   -0.1518    4.1658 N.am      1 <0>        -0.6974
     16 C11        -3.0890   -0.5375    4.0738 C.2       1 <0>         0.5272
     17 O4         -2.7561   -1.6866    4.2707 O.2       1 <0>        -0.5317
     18 O5         -1.1055    0.5970    4.7620 O.3       1 <0>        -0.4827
     19 O6         -3.3119    0.0694    1.3271 O.2       1 <0>        -0.5892
     20 C12         0.7125   -0.5000   -1.2590 C.3       1 <0>        -0.1335
     21 H1          1.0039    1.9031    0.0027 H         1 <0>         0.0405
     22 H2         -0.5459    1.8868   -0.8726 H         1 <0>         0.0397
     23 H3         -0.5289    1.8773    0.9072 H         1 <0>         0.0881
     24 H4         -1.9852   -0.1383   -0.8233 H         1 <0>         0.0617
     25 H5         -1.4189   -1.6254   -0.0249 H         1 <0>         0.0639
     26 H6          0.7967   -1.6021    1.2116 H         1 <0>         0.0634
     27 H7          1.7502   -0.0991    1.2603 H         1 <0>         0.0608
     28 H8         -5.0575   -0.8083    4.3950 H         1 <0>         0.3784
     29 H9         -1.4693    0.8678    5.6161 H         1 <0>         0.3282
     30 H10         1.7353   -0.1236   -1.2717 H         1 <0>         0.0474
     31 H11         0.7263   -1.5899   -1.2634 H         1 <0>         0.0465
     32 H12         0.1818   -0.1399   -2.1404 H         1 <0>         0.0469
@<TRIPOS>BOND
     1    1    2 1
     2    1   21 1
     3    1   22 1
     4    1   23 1
     5    2    8 1
     6    2    3 1
     7    2   20 1
     8    3   24 1
     9    3   25 1
    10    3    4 1
    11    4    5 1
    12    4   19 2
    13    5    9 1
    14    5    6 2
    15    6    8 1
    16    6    7 1
    17    8   26 1
    18    8   27 1
    19    9   16 1
    20    9   10 1
    21    9   18 1
    22   10   11 1
    23   10   12 2
    24   12   13 1
    25   13   14 2
    26   13   15 am
    27   15   16 am
    28   15   28 1
    29   16   17 2
    30   18   29 1
    31   20   30 1
    32   20   31 1
    33   20   32 1
@<TRIPOS>MOLECULE
ZINC50421587
   36    36     0     0     0
SMALL
USER_CHARGES

@<TRIPOS>ATOM
      1 C1         -0.0187    1.5258    0.0104 C.3       1 <0>        -0.1562
      2 C2          0.0021   -0.0041    0.0020 C.3       1 <0>         0.2564
      3 H1         -1.0205   -0.3814    0.0098 H         1 <0>         0.0999
      4 C3          0.7074   -0.4901   -1.2379 C.2       1 <0>         0.1791
      5 N1          1.9952   -0.4780   -1.4502 N.2       1 <0>        -0.2821
      6 N2          2.2470   -0.9678   -2.6123 N.2       1 <0>        -0.2968
      7 C4          1.1313   -1.3146   -3.1941 C.2       1 <0>         0.1417
      8 N3          0.1228   -1.0260   -2.3364 N.pl3     1 <0>        -0.4721
      9 C5         -1.3092   -1.2459   -2.5540 C.3       1 <0>         0.0681
     10 N4          0.7106   -0.4894    1.1889 N.am      1 <0>        -0.7452
     11 C6          0.0512   -0.6335    2.3554 C.2       1 <0>         0.7072
     12 O1         -1.1318   -0.3607    2.4228 O.2       1 <0>        -0.6021
     13 N5          0.7031   -1.0799    3.4473 N.am      1 <0>        -0.6972
     14 C7         -0.0137   -1.2366    4.7154 C.3       1 <0>         0.0930
     15 H2         -1.0356   -1.5601    4.5175 H         1 <0>         0.0753
     16 C8          0.6953   -2.2842    5.5760 C.3       1 <0>        -0.0827
     17 C9          0.6095   -3.6497    4.8912 C.3       1 <0>        -0.1755
     18 C10         1.3078   -4.6815    5.7389 C.2       1 <0>         0.4906
     19 O2          1.8262   -4.3551    6.7930 O.co2     1 <0>        -0.6973
     20 O3          1.3545   -5.8429    5.3705 O.co2     1 <0>        -0.7209
     21 C11        -0.0366    0.0815    5.4456 C.2       1 <0>         0.4969
     22 O4         -0.9684    0.3536    6.1833 O.co2     1 <0>        -0.7041
     23 O5          0.8767    0.8757    5.2987 O.co2     1 <0>        -0.6987
     24 H3          1.0039    1.9031    0.0027 H         1 <0>         0.0668
     25 H4         -0.5459    1.8868   -0.8726 H         1 <0>         0.0561
     26 H5         -0.5289    1.8773    0.9072 H         1 <0>         0.0820
     27 H6          1.0309   -1.7539   -4.1756 H         1 <0>         0.2173
     28 H7         -1.7453   -0.3633   -3.0220 H         1 <0>         0.0840
     29 H8         -1.4495   -2.1090   -3.2047 H         1 <0>         0.0927
     30 H9         -1.7981   -1.4289   -1.5972 H         1 <0>         0.0970
     31 H10         1.6544   -0.7070    1.1351 H         1 <0>         0.4013
     32 H11         1.6468   -1.2976    3.3936 H         1 <0>         0.3902
     33 H12         1.7416   -2.0049    5.6998 H         1 <0>         0.0605
     34 H13         0.2152   -2.3370    6.5532 H         1 <0>         0.0724
     35 H14        -0.4369   -3.9289    4.7673 H         1 <0>         0.0514
     36 H15         1.0895   -3.5969    3.9140 H         1 <0>         0.0508
@<TRIPOS>BOND
     1    1    2 1
     2    1   24 1
     3    1   25 1
     4    1   26 1
     5    2    3 1
     6    2    4 1
     7    2   10 1
     8    4    8 1
     9    4    5 2
    10    5    6 1
    11    6    7 2
    12    7    8 1
    13    7   27 1
    14    8    9 1
    15    9   28 1
    16    9   29 1
    17    9   30 1
    18   10   11 am
    19   10   31 1
    20   11   12 2
    21   11   13 am
    22   13   14 1
    23   13   32 1
    24   14   15 1
    25   14   16 1
    26   14   21 1
    27   16   17 1
    28   16   33 1
    29   16   34 1
    30   17   18 1
    31   17   35 1
    32   17   36 1
    33   18   19 2
    34   18   20 1
    35   21   22 2
    36   21   23 1
@<TRIPOS>MOLECULE
ZINC36108835
   13    13     0     0     0
SMALL
USER_CHARGES

@<TRIPOS>ATOM
      1 C1         -0.0163    1.3488    0.0095 C.2       1 <0>         0.5503
      2 O1          1.0209    1.9901    0.0030 O.2       1 <0>        -0.5470
      3 C2         -1.2719    1.9974    0.0190 C.2       1 <0>        -0.6803
      4 N1         -2.3672    1.2763    0.0203 N.2       1 <0>        -0.0496
      5 N2         -2.3234   -0.0078    0.0131 N.2       1 <0>        -0.4286
      6 C3         -1.1828   -0.6701    0.0040 C.2       1 <0>         0.5695
      7 O2         -1.1923   -2.0185   -0.0032 O.3       1 <0>        -0.6779
      8 N3          0.0021   -0.0041    0.0020 N.am      1 <0>        -0.6593
      9 H1          0.8426   -0.4882   -0.0083 H         1 <0>         0.3952
     10 S1         -1.3647    3.7569    0.0296 S.o2      1 <0>         2.7396
     11 O3         -0.4983    4.2320   -1.0380 O.2       1 <0>        -1.0689
     12 O4         -2.7569    4.1079   -0.2037 O.2       1 <0>        -1.0670
     13 O5         -0.9055    4.1963    1.3381 O.3       1 <0>        -1.0760
@<TRIPOS>BOND
     1    1    8 am
     2    1    2 2
     3    1    3 1
     4    3    4 2
     5    3   10 1
     6    4    5 1
     7    5    6 2
     8    6    7 1
     9    6    8 1
    10    8    9 1
    11   10   11 2
    12   10   12 2
    13   10   13 1
@<TRIPOS>MOLECULE
ZINC37449643
   41    41     0     0     0
SMALL
USER_CHARGES

@<TRIPOS>ATOM
      1 C1         -0.2680    1.4921    0.1763 C.3       1 <0>        -0.1539
      2 C2          0.0021   -0.0038    0.0021 C.3       1 <0>         0.1304
      3 H1          0.5388   -0.1697   -0.9319 H         1 <0>         0.1053
      4 C3          0.8348   -0.5015    1.1553 C.2       1 <0>         0.5303
      5 O1          0.2953   -0.9729    2.1339 O.2       1 <0>        -0.5313
      6 N1          2.1791   -0.4228    1.0992 N.am      1 <0>        -0.5807
      7 C4          2.9579    0.2229    0.0268 C.3       1 <0>         0.0676
      8 C5          4.3085    0.5964    0.6874 C.3       1 <0>         0.0912
      9 H2          4.2226    1.5227    1.2554 H         1 <0>         0.0731
     10 C6          4.5397   -0.6144    1.6297 C.3       1 <0>        -0.1008
     11 C7          3.1115   -0.9610    2.1004 C.3       1 <0>         0.0674
     12 H3          2.9179   -0.5040    3.0708 H         1 <0>         0.0737
     13 C8          2.9548   -2.4569    2.1948 C.2       1 <0>         0.4992
     14 O2          2.6069   -3.0963    1.2167 O.co2     1 <0>        -0.6831
     15 O3          3.1759   -3.0277    3.2492 O.co2     1 <0>        -0.6924
     16 O4          5.3472    0.6920   -0.2893 O.3       1 <0>        -0.5535
     17 N2         -1.2703   -0.7292   -0.0303 N.am      1 <0>        -0.7070
     18 C9         -1.9487   -0.8485   -1.1887 C.2       1 <0>         0.5268
     19 O5         -1.5058   -0.3552   -2.2044 O.2       1 <0>        -0.5450
     20 C10        -3.2575   -1.5947   -1.2221 C.3       1 <0>        -0.0851
     21 C11        -3.8156   -1.5822   -2.6467 C.3       1 <0>        -0.1249
     22 C12        -3.0318   -3.0406   -0.7755 C.3       1 <0>        -0.1444
     23 C13        -4.2541   -0.9190   -0.2781 C.3       1 <0>        -0.1406
     24 H4          0.6792    2.0258    0.2532 H         1 <0>         0.0683
     25 H5         -0.8254    1.8632   -0.6837 H         1 <0>         0.0712
     26 H6         -0.8504    1.6529    1.0836 H         1 <0>         0.0650
     27 H7          3.1181   -0.4724   -0.7971 H         1 <0>         0.0793
     28 H8          2.4475    1.1191   -0.3258 H         1 <0>         0.0731
     29 H9          4.9830   -1.4479    1.0849 H         1 <0>         0.0856
     30 H10         5.1641   -0.3302    2.4767 H         1 <0>         0.0822
     31 H11         5.1960    1.3731   -0.9589 H         1 <0>         0.3751
     32 H12        -1.6245   -1.1237    0.7820 H         1 <0>         0.4101
     33 H13        -3.1056   -2.0636   -3.3192 H         1 <0>         0.0621
     34 H14        -4.7622   -2.1220   -2.6708 H         1 <0>         0.0601
     35 H15        -3.9764   -0.5522   -2.9649 H         1 <0>         0.0605
     36 H16        -2.6342   -3.0494    0.2394 H         1 <0>         0.0646
     37 H17        -3.9785   -3.5803   -0.7996 H         1 <0>         0.0678
     38 H18        -2.3218   -3.5220   -1.4480 H         1 <0>         0.0629
     39 H19        -4.4149    0.1110   -0.5963 H         1 <0>         0.0598
     40 H20        -5.2007   -1.4587   -0.3022 H         1 <0>         0.0679
     41 H21        -3.8565   -0.9279    0.7368 H         1 <0>         0.0621
@<TRIPOS>BOND
     1    1    2 1
     2    1   24 1
     3    1   25 1
     4    1   26 1
     5    2    3 1
     6    2    4 1
     7    2   17 1
     8    4    5 2
     9    4    6 am
    10    6   11 1
    11    6    7 1
    12    7    8 1
    13    7   27 1
    14    7   28 1
    15    8    9 1
    16    8   10 1
    17    8   16 1
    18   10   11 1
    19   10   29 1
    20   10   30 1
    21   11   12 1
    22   11   13 1
    23   13   14 2
    24   13   15 1
    25   16   31 1
    26   17   18 am
    27   17   32 1
    28   18   19 2
    29   18   20 1
    30   20   21 1
    31   20   22 1
    32   20   23 1
    33   21   33 1
    34   21   34 1
    35   21   35 1
    36   22   36 1
    37   22   37 1
    38   22   38 1
    39   23   39 1
    40   23   40 1
    41   23   41 1
@<TRIPOS>MOLECULE
ZINC40524885
   31    31     0     0     0
SMALL
USER_CHARGES

@<TRIPOS>ATOM
      1 C1         -0.0173    1.4248    0.0099 C.3       1 <0>         0.0311
      2 O1          0.0021   -0.0041    0.0020 O.3       1 <0>        -0.3845
      3 C2         -1.2953   -0.6030    0.0112 C.3       1 <0>         0.0514
      4 C3         -1.1538   -2.1264    0.0017 C.3       1 <0>         0.1436
      5 N1         -0.5155   -2.5654    1.2451 N.am      1 <0>        -0.7487
      6 C4         -0.2873   -3.8763    1.4591 C.2       1 <0>         0.7304
      7 O2         -0.6111   -4.6946    0.6202 O.2       1 <0>        -0.5767
      8 N2          0.3000   -4.2801    2.6030 N.am      1 <0>        -0.6016
      9 C5          0.7356   -3.3998    3.7024 C.3       1 <0>         0.0750
     10 C6          0.7449   -4.3078    4.9575 C.3       1 <0>         0.0875
     11 H1          1.4363   -3.9277    5.7096 H         1 <0>         0.0750
     12 C7          1.2493   -5.6509    4.3666 C.3       1 <0>        -0.0982
     13 C8          0.6064   -5.6720    2.9639 C.3       1 <0>         0.0885
     14 H2         -0.3108   -6.2605    2.9833 H         1 <0>         0.0676
     15 C9          1.5740   -6.2584    1.9684 C.2       1 <0>         0.4942
     16 O3          2.0967   -5.5421    1.1316 O.co2     1 <0>        -0.6765
     17 O4          1.8341   -7.4492    1.9998 O.co2     1 <0>        -0.7035
     18 O5         -0.5703   -4.4472    5.4986 O.3       1 <0>        -0.5534
     19 H3          1.0053    1.8021    0.0021 H         1 <0>         0.0852
     20 H4         -0.5445    1.7859   -0.8732 H         1 <0>         0.0397
     21 H5         -0.5275    1.7763    0.9067 H         1 <0>         0.0391
     22 H6         -1.8320   -0.2936    0.9080 H         1 <0>         0.0534
     23 H7         -1.8490   -0.2840   -0.8718 H         1 <0>         0.0643
     24 H8         -2.1404   -2.5824   -0.0809 H         1 <0>         0.0771
     25 H9         -0.5414   -2.4291   -0.8477 H         1 <0>         0.0732
     26 H10        -0.2572   -1.9125    1.9144 H         1 <0>         0.3898
     27 H11         1.7359   -3.0141    3.5059 H         1 <0>         0.0706
     28 H12         0.0305   -2.5790    3.8333 H         1 <0>         0.0638
     29 H13         2.3370   -5.6570    4.2964 H         1 <0>         0.0866
     30 H14         0.8955   -6.4917    4.9631 H         1 <0>         0.0853
     31 H15        -0.9654   -3.6146    5.7915 H         1 <0>         0.3708
@<TRIPOS>BOND
     1    1    2 1
     2    1   19 1
     3    1   20 1
     4    1   21 1
     5    2    3 1
     6    3    4 1
     7    3   22 1
     8    3   23 1
     9    4    5 1
    10    4   24 1
    11    4   25 1
    12    5    6 am
    13    5   26 1
    14    6    7 2
    15    6    8 am
    16    8   13 1
    17    8    9 1
    18    9   10 1
    19    9   27 1
    20    9   28 1
    21   10   11 1
    22   10   12 1
    23   10   18 1
    24   12   13 1
    25   12   29 1
    26   12   30 1
    27   13   14 1
    28   13   15 1
    29   15   16 2
    30   15   17 1
    31   18   31 1
@<TRIPOS>MOLECULE
ZINC44364462
   34    33     0     0     0
SMALL
USER_CHARGES

@<TRIPOS>ATOM
      1 C1         -0.0187    1.5258    0.0104 C.3       1 <0>        -0.1408
      2 C2          0.0021   -0.0041    0.0020 C.3       1 <0>        -0.0862
      3 C3         -1.4333   -0.5336    0.0129 C.3       1 <0>        -0.1434
      4 C4          0.7182   -0.4975   -1.2568 C.3       1 <0>         0.0961
      5 H1          0.1910   -0.1364   -2.1398 H         1 <0>         0.0812
      6 C5          0.7386   -2.0043   -1.2651 C.2       1 <0>         0.4909
      7 O1         -0.2945   -2.6270   -1.4419 O.co2     1 <0>        -0.6924
      8 O2          1.7884   -2.6007   -1.0949 O.co2     1 <0>        -0.6904
      9 N1          2.0926    0.0096   -1.2672 N.am      1 <0>        -0.7079
     10 C6          2.7489    0.1537   -2.4355 C.2       1 <0>         0.7071
     11 O3          2.2003   -0.1372   -3.4809 O.2       1 <0>        -0.5907
     12 N2          4.0133    0.6202   -2.4451 N.am      1 <0>        -0.7493
     13 C7          4.7267    0.7767   -3.7150 C.3       1 <0>         0.1550
     14 C8          6.1322    1.3188   -3.4470 C.3       1 <0>        -0.6309
     15 S1          7.0155    1.5127   -5.0195 S.o2      1 <0>         2.4310
     16 O4          7.2064    0.2251   -5.5895 O.2       1 <0>        -0.9313
     17 O5          6.3597    2.5160   -5.7827 O.2       1 <0>        -0.9345
     18 C9          8.6298    2.1534   -4.4959 C.3       1 <0>        -0.6550
     19 H2          1.0039    1.9031    0.0027 H         1 <0>         0.0475
     20 H3         -0.5459    1.8868   -0.8726 H         1 <0>         0.0514
     21 H4         -0.5289    1.8773    0.9072 H         1 <0>         0.0481
     22 H5          0.5293   -0.3651    0.8851 H         1 <0>         0.0644
     23 H6         -1.9605   -0.1726   -0.8702 H         1 <0>         0.0489
     24 H7         -1.4185   -1.6235    0.0069 H         1 <0>         0.0879
     25 H8         -1.9435   -0.1821    0.9097 H         1 <0>         0.0392
     26 H9          2.5303    0.2417   -0.4332 H         1 <0>         0.3856
     27 H10         4.4510    0.8522   -1.6111 H         1 <0>         0.3933
     28 H11         4.7991   -0.1903   -4.2128 H         1 <0>         0.0812
     29 H12         4.1839    1.4741   -4.3531 H         1 <0>         0.0793
     30 H13         6.0599    2.2858   -2.9493 H         1 <0>         0.1375
     31 H14         6.6750    0.6214   -2.8089 H         1 <0>         0.1394
     32 H15         9.1077    1.4344   -3.8306 H         1 <0>         0.1289
     33 H16         9.2591    2.3122   -5.3716 H         1 <0>         0.1307
     34 H17         8.4926    3.0988   -3.9709 H         1 <0>         0.1280
@<TRIPOS>BOND
     1    1    2 1
     2    1   19 1
     3    1   20 1
     4    1   21 1
     5    2    3 1
     6    2    4 1
     7    2   22 1
     8    3   23 1
     9    3   24 1
    10    3   25 1
    11    4    5 1
    12    4    6 1
    13    4    9 1
    14    6    7 2
    15    6    8 1
    16    9   10 am
    17    9   26 1
    18   10   11 2
    19   10   12 am
    20   12   13 1
    21   12   27 1
    22   13   14 1
    23   13   28 1
    24   13   29 1
    25   14   15 1
    26   14   30 1
    27   14   31 1
    28   15   16 2
    29   15   17 2
    30   15   18 1
    31   18   32 1
    32   18   33 1
    33   18   34 1
@<TRIPOS>MOLECULE
ZINC50215082
   27    27     0     0     0
SMALL
USER_CHARGES

@<TRIPOS>ATOM
      1 C1         -0.0184    1.5028    0.0103 C.3       1 <0>        -0.0791
      2 C2          0.0021   -0.0041    0.0020 C.2       1 <0>         0.0853
      3 C3          0.0087   -0.8208   -1.1079 C.2       1 <0>        -0.0867
      4 N1          0.0277   -2.0992   -0.6891 N.2       1 <0>        -0.1923
      5 N2          0.0333   -2.1308    0.5977 N.2       1 <0>        -0.1034
      6 N3          0.0233   -0.8141    1.0781 N.pl3     1 <0>        -0.3708
      7 C4          0.0310   -0.3981    2.4828 C.3       1 <0>         0.1239
      8 C5         -1.3870   -0.2748    2.9779 C.2       1 <0>         0.4971
      9 O1         -2.3129   -0.5111    2.2310 O.2       1 <0>        -0.5079
     10 N4         -1.6264    0.0981    4.2507 N.am      1 <0>        -0.5261
     11 N5         -2.9446    0.2127    4.7110 N.am      1 <0>        -0.5200
     12 C6         -3.1839    0.5856    5.9839 C.2       1 <0>         0.5123
     13 O2         -2.2581    0.8219    6.7308 O.2       1 <0>        -0.5490
     14 C7         -4.6019    0.7089    6.4790 C.3       1 <0>        -0.1600
     15 C8         -0.0035   -0.3722   -2.5092 C.2       1 <0>         0.5619
     16 O3         -0.0212    0.8234   -2.7686 O.co2     1 <0>        -0.6824
     17 O4          0.0041   -1.1946   -3.4149 O.co2     1 <0>        -0.6686
     18 H1          1.0042    1.8801    0.0026 H         1 <0>         0.0794
     19 H2         -0.5455    1.8639   -0.8728 H         1 <0>         0.1152
     20 H3         -0.5286    1.8543    0.9071 H         1 <0>         0.0522
     21 H4          0.5606   -1.1412    3.0789 H         1 <0>         0.1348
     22 H5          0.5326    0.5653    2.5737 H         1 <0>         0.1300
     23 H6         -0.8859    0.2871    4.8481 H         1 <0>         0.4327
     24 H7         -3.6851    0.0237    4.1136 H         1 <0>         0.4335
     25 H8         -5.2914    0.4588    5.6726 H         1 <0>         0.0819
     26 H9         -4.7560    0.0252    7.3138 H         1 <0>         0.1030
     27 H10        -4.7840    1.7317    6.8087 H         1 <0>         0.1033
@<TRIPOS>BOND
     1    1    2 1
     2    1   18 1
     3    1   19 1
     4    1   20 1
     5    2    6 1
     6    2    3 2
     7    3    4 1
     8    3   15 1
     9    4    5 2
    10    5    6 1
    11    6    7 1
    12    7    8 1
    13    7   21 1
    14    7   22 1
    15    8    9 2
    16    8   10 am
    17   10   11 1
    18   10   23 1
    19   11   12 am
    20   11   24 1
    21   12   13 2
    22   12   14 1
    23   14   25 1
    24   14   26 1
    25   14   27 1
    26   15   16 2
    27   15   17 1
@<TRIPOS>MOLECULE
ZINC61948649
   35    35     0     0     0
SMALL
USER_CHARGES

@<TRIPOS>ATOM
      1 C1          0.2093    1.0104    0.0000 C.3       1 <0>         0.0214
      2 C2          1.7206    1.2588   -0.0502 C.3       1 <0>         0.1229
      3 N1          2.3489    0.5455    1.0722 N.am      1 <0>        -0.6376
      4 C3          2.0324   -0.8790    1.2559 C.3       1 <0>         0.1390
      5 C4          0.5089   -1.0432    1.2547 C.3       1 <0>         0.0431
      6 N2         -0.0450   -0.4359    0.0372 N.3       1 <0>        -0.5314
      7 C5         -1.4806   -0.7214   -0.0874 C.3       1 <0>         0.0077
      8 C6         -1.9079   -0.5597   -1.5476 C.3       1 <0>         0.4585
      9 F1         -1.0915   -1.3511   -2.3627 F         1 <0>        -0.1729
     10 F2         -3.2401   -0.9621   -1.6909 F         1 <0>        -0.1866
     11 F3         -1.7828    0.7818   -1.9243 F         1 <0>        -0.1821
     12 C7          3.1926    1.1804    1.9098 C.2       1 <0>         0.7162
     13 O1          3.6416    0.5972    2.8777 O.2       1 <0>        -0.5963
     14 N3          3.5386    2.4615    1.6746 N.am      1 <0>        -0.7058
     15 C8          4.3704    3.1846    2.6398 C.3       1 <0>         0.0867
     16 H1          5.0880    2.4973    3.0878 H         1 <0>         0.0941
     17 C9          5.1205    4.3100    1.9243 C.3       1 <0>         0.0897
     18 O2          4.1833    5.2725    1.4371 O.3       1 <0>        -0.5605
     19 C10         3.4952    3.7703    3.7177 C.2       1 <0>         0.5012
     20 O3          2.2885    3.5995    3.6830 O.co2     1 <0>        -0.6836
     21 O4          3.9938    4.4149    4.6246 O.co2     1 <0>        -0.7029
     22 H2         -0.2063    1.4759    0.8937 H         1 <0>         0.0536
     23 H3         -0.2594    1.4395   -0.8855 H         1 <0>         0.0996
     24 H4          2.1220    0.8851   -0.9922 H         1 <0>         0.0718
     25 H5          1.9192    2.3270    0.0376 H         1 <0>         0.0871
     26 H6          2.4638   -1.4582    0.4395 H         1 <0>         0.0686
     27 H7          2.4372   -1.2242    2.2073 H         1 <0>         0.0995
     28 H8          0.2573   -2.1035    1.2791 H         1 <0>         0.0894
     29 H9          0.0891   -0.5492    2.1310 H         1 <0>         0.0502
     30 H10        -1.6774   -1.7429    0.2379 H         1 <0>         0.1184
     31 H11        -2.0445   -0.0268    0.5353 H         1 <0>         0.0852
     32 H12         3.2369    2.9048    0.8663 H         1 <0>         0.3901
     33 H13         5.8056    4.7911    2.6224 H         1 <0>         0.0624
     34 H14         5.6845    3.8966    1.0883 H         1 <0>         0.0365
     35 H15         4.5895    6.0162    0.9713 H         1 <0>         0.3670
@<TRIPOS>BOND
     1    1    6 1
     2    1    2 1
     3    1   22 1
     4    1   23 1
     5    2    3 1
     6    2   24 1
     7    2   25 1
     8    3    4 1
     9    3   12 am
    10    4    5 1
    11    4   26 1
    12    4   27 1
    13    5    6 1
    14    5   28 1
    15    5   29 1
    16    6    7 1
    17    7    8 1
    18    7   30 1
    19    7   31 1
    20    8    9 1
    21    8   10 1
    22    8   11 1
    23   12   13 2
    24   12   14 am
    25   14   15 1
    26   14   32 1
    27   15   16 1
    28   15   17 1
    29   15   19 1
    30   17   18 1
    31   17   33 1
    32   17   34 1
    33   18   35 1
    34   19   20 2
    35   19   21 1
@<TRIPOS>MOLECULE
ZINC05380648
   30    29     0     0     0
SMALL
USER_CHARGES
2-(4-amino-4-carboxy-butanoyl)aminobutanedioic acid
@<TRIPOS>ATOM
      1 C1         -0.7288    1.5792    1.2668 C.3       1 <0>        -0.1078
      2 C2         -0.0127    1.0858    0.0080 C.3       1 <0>        -0.1481
      3 C3         -0.7416    1.5850   -1.2129 C.2       1 <0>         0.5162
      4 O1         -1.7359    2.2682   -1.0884 O.2       1 <0>        -0.5535
      5 N1         -0.2884    1.2723   -2.4431 N.am      1 <0>        -0.6704
      6 C4         -0.9970    1.7576   -3.6299 C.3       1 <0>         0.1234
      7 H1         -2.0683    1.7787   -3.4302 H         1 <0>         0.0885
      8 C5         -0.7162    0.8238   -4.8089 C.3       1 <0>        -0.1499
      9 C6         -1.3011   -0.5355   -4.5234 C.2       1 <0>         0.4623
     10 O2         -1.8828   -0.7366   -3.4837 O.co2     1 <0>        -0.6334
     11 C7         -0.5212    3.1476   -3.9657 C.2       1 <0>         0.4645
     12 O3          0.3231    3.6783   -3.2836 O.co2     1 <0>        -0.6477
     13 C8          0.0111    1.0724    2.5063 C.3       1 <0>        -0.0153
     14 H2          0.1037   -0.0125    2.4560 H         1 <0>         0.1383
     15 C9         -0.7607    1.4538    3.7432 C.2       1 <0>         0.4606
     16 O4         -0.4228    2.4141    4.3940 O.co2     1 <0>        -0.6264
     17 H3         -0.7436    2.6691    1.2728 H         1 <0>         0.0894
     18 H4         -1.7514    1.2020    1.2746 H         1 <0>         0.1184
     19 H5          0.0021   -0.0041    0.0020 H         1 <0>         0.0982
     20 H6          1.0099    1.4631    0.0003 H         1 <0>         0.0746
     21 H7          0.5068    0.7259   -2.5426 H         1 <0>         0.3856
     22 H8         -1.1699    1.2322   -5.7119 H         1 <0>         0.0863
     23 H9          0.3605    0.7332   -4.9523 H         1 <0>         0.0584
     24 H10         1.9092    1.3831    1.7721 H         1 <0>         0.4211
     25 H11         1.2906    2.6822    2.6059 H         1 <0>         0.4344
     26 O5         -1.1758   -1.5227   -5.4243 O.co2     1 <0>        -0.7905
     27 O6         -1.0354    3.7959   -5.0225 O.co2     1 <0>        -0.7735
     28 O7         -1.8237    0.7269    4.1217 O.co2     1 <0>        -0.7070
     29 N2          1.3578    1.6661    2.5804 N.4       1 <0>        -0.6253
     30 H12         1.8240    1.3397    3.4350 H         1 <0>         0.4288
@<TRIPOS>BOND
     1    1    2 1
     2    1   13 1
     3    1   17 1
     4    1   18 1
     5    2    3 1
     6    2   19 1
     7    2   20 1
     8    3    4 2
     9    3    5 am
    10    5    6 1
    11    5   21 1
    12    6    7 1
    13    6    8 1
    14    6   11 1
    15    8    9 1
    16    8   22 1
    17    8   23 1
    18    9   10 2
    19    9   26 1
    20   11   12 2
    21   11   27 1
    22   13   14 1
    23   13   15 1
    24   13   29 1
    25   15   16 2
    26   15   28 1
    27   24   29 1
    28   25   29 1
    29   29   30 1
@<TRIPOS>MOLECULE
ZINC25578679
   19    19     0     0     0
SMALL
USER_CHARGES
(2R)-2-(4,6-dihydroxy-2-sulfanyl-pyrimidin-5-yl)propanoic acid
@<TRIPOS>ATOM
      1 C1          0.5222    3.6385   -1.2327 C.3       1 <0>        -0.1091
      2 C2          1.2350    3.0943    0.0069 C.3       1 <0>        -0.0243
      3 H1          0.7501    3.4681    0.9207 H         1 <0>         0.0590
      4 C3          2.6741    3.5412   -0.0045 C.2       1 <0>        -0.3811
      5 C4          3.5221    3.1824   -1.0464 C.2       1 <0>         0.4666
      6 N1          4.7838    3.5993   -1.0268 N.pl3     1 <0>        -0.6056
      7 C5          5.2386    4.3376   -0.0247 C.2       1 <0>         0.5345
      8 N2          4.4599    4.6933    0.9869 N.2       1 <0>        -0.5995
      9 C6          3.1861    4.3171    1.0296 C.2       1 <0>         0.4490
     10 O1          2.3961    4.6853    2.0675 O.3       1 <0>        -0.7261
     11 S1          6.9213    4.8602   -0.0380 S.2       1 <0>        -0.9050
     12 O2          3.0662    2.4224   -2.0718 O.3       1 <0>        -0.6942
     13 C7          1.1765    1.5884   -0.0006 C.2       1 <0>         0.4829
     14 O3          2.1986    0.9442   -0.0139 O.co2     1 <0>        -0.6260
     15 O4         -0.0110    0.9628    0.0073 O.co2     1 <0>        -0.8306
     16 H2          0.5649    4.7377   -1.2272 H         1 <0>         0.0162
     17 H3         -0.5283    3.3123   -1.2244 H         1 <0>         0.0276
     18 H4          1.0175    3.2568   -2.1376 H         1 <0>         0.0597
     19 H5          5.4530    3.3246   -1.8555 H         1 <0>         0.4060
@<TRIPOS>BOND
     1    1    2 1
     2    1   16 1
     3    1   17 1
     4    1   18 1
     5    2    3 1
     6    2   13 1
     7    2    4 1
     8    4    5 2
     9    4    9 1
    10    5   12 1
    11    5    6 1
    12    6    7 1
    13    6   19 1
    14    7    8 1
    15    7   11 2
    16    8    9 2
    17    9   10 1
    18   13   14 2
    19   13   15 1
@<TRIPOS>MOLECULE
ZINC13739512
   26    26     0     0     0
SMALL
USER_CHARGES

@<TRIPOS>ATOM
      1 C1          0.1062    1.4827   -0.0290 C.3       1 <0>         0.3486
      2 H1          0.4934    0.5334   -0.3991 H         1 <0>         0.0741
      3 C2         -0.7240    1.2412    1.2378 C.3       1 <0>         0.3350
      4 H2         -1.4388    0.4380    1.0591 H         1 <0>         0.0929
      5 N1          0.1840    0.8599    2.3287 N.pl3     1 <0>        -1.0379
      6 C3          1.3029    1.7521    2.6635 C.3       1 <0>         0.3486
      7 H3          0.9157    2.7014    3.0336 H         1 <0>         0.0741
      8 C4          2.1330    1.9936    1.3967 C.3       1 <0>         0.3349
      9 H4          2.8478    2.7969    1.5753 H         1 <0>         0.0930
     10 N2          1.2251    2.3749    0.3058 N.pl3     1 <0>        -1.0378
     11 S1          1.4588    3.7843   -0.5316 S.o2      1 <0>         2.7898
     12 O1          2.8489    4.1659   -0.3367 O.2       1 <0>        -1.0943
     13 O2          1.1640    3.5002   -1.9275 O.2       1 <0>        -1.0921
     14 O3          0.5424    4.7654    0.0285 O.3       1 <0>        -1.0702
     15 O4          2.8330    0.7979    1.0468 O.3       1 <0>        -0.5462
     16 O5          2.1184    1.1430    3.6664 O.3       1 <0>        -0.5584
     17 S2         -0.0498   -0.5495    3.1661 S.o2      1 <0>         2.7898
     18 O6          0.2474   -0.2660    4.5616 O.2       1 <0>        -1.0920
     19 O7         -1.4405   -0.9298    2.9731 O.2       1 <0>        -1.0943
     20 O8          0.8650   -1.5312    2.6044 O.3       1 <0>        -1.0702
     21 O9         -1.4239    2.4369    1.5877 O.3       1 <0>        -0.5462
     22 O10        -0.7093    2.0918   -1.0320 O.3       1 <0>        -0.5583
     23 H5          3.3791    0.8798    0.2529 H         1 <0>         0.3648
     24 H6          1.6996    1.0923    4.5366 H         1 <0>         0.3938
     25 H7         -1.9700    2.3550    2.3815 H         1 <0>         0.3648
     26 H8         -0.2912    2.1410   -1.9025 H         1 <0>         0.3937
@<TRIPOS>BOND
     1    1    2 1
     2    1   10 1
     3    1    3 1
     4    1   22 1
     5    3    4 1
     6    3    5 1
     7    3   21 1
     8    5    6 1
     9    5   17 1
    10    6    7 1
    11    6    8 1
    12    6   16 1
    13    8    9 1
    14    8   10 1
    15    8   15 1
    16   10   11 1
    17   11   12 2
    18   11   13 2
    19   11   14 1
    20   15   23 1
    21   16   24 1
    22   17   18 2
    23   17   19 2
    24   17   20 1
    25   21   25 1
    26   22   26 1
@<TRIPOS>MOLECULE
ZINC44608607
   31    31     0     0     0
SMALL
USER_CHARGES

@<TRIPOS>ATOM
      1 C1         -0.0187    1.5258    0.0104 C.3       1 <0>         0.0841
      2 C2          0.0021   -0.0041    0.0020 C.3       1 <0>         0.0697
      3 H1          0.5883   -0.3550   -0.8473 H         1 <0>         0.0778
      4 C3         -1.4298   -0.5335   -0.1124 C.3       1 <0>         0.0515
      5 H2         -1.8639   -0.2084   -1.0579 H         1 <0>         0.1028
      6 C4         -1.4057   -2.0641   -0.0595 C.3       1 <0>         0.1363
      7 H3         -0.8501   -2.4498   -0.9143 H         1 <0>         0.0919
      8 C5         -0.7236   -2.5086    1.2379 C.3       1 <0>         0.1558
      9 H4         -1.3066   -2.1648    2.0923 H         1 <0>         0.1128
     10 C6          0.6811   -1.9029    1.3002 C.3       1 <0>         0.2521
     11 H5          1.2762   -2.2788    0.4679 H         1 <0>         0.0496
     12 O1          0.5890   -0.4794    1.2152 O.3       1 <0>        -0.3935
     13 O2          1.3031   -2.2676    2.5339 O.3       1 <0>        -0.4822
     14 N1         -0.6294   -3.9703    1.2657 N.pl3     1 <0>        -1.1284
     15 S1         -0.7807   -4.7826    2.7008 S.o2      1 <0>         2.7812
     16 O3         -0.5235   -6.1867    2.4206 O.2       1 <0>        -1.0985
     17 O4          0.2056   -4.2205    3.6104 O.2       1 <0>        -1.0693
     18 O5         -2.1400   -4.5623    3.1697 O.3       1 <0>        -1.0914
     19 O6         -2.7437   -2.5648   -0.0939 O.3       1 <0>        -0.7418
     20 S2         -3.2280   -2.9420   -1.4867 S.o2      1 <0>         2.7692
     21 O7         -4.6741   -3.0790   -1.4084 O.2       1 <0>        -1.0704
     22 O8         -2.8320   -1.8629   -2.3782 O.2       1 <0>        -1.1077
     23 O9         -2.5811   -4.1980   -1.8330 O.3       1 <0>        -1.0869
     24 O10        -2.2133   -0.0293    0.9711 O.3       1 <0>        -0.5292
     25 O11         1.3220    2.0204    0.0003 O.3       1 <0>        -0.5622
     26 H6         -0.5459    1.8868   -0.8726 H         1 <0>         0.0661
     27 H7         -0.5289    1.8773    0.9072 H         1 <0>         0.0604
     28 H8          2.1980   -1.9175    2.6418 H         1 <0>         0.3644
     29 H9         -0.4785   -4.4623    0.4435 H         1 <0>         0.3975
     30 H10        -2.2680    0.9357    1.0014 H         1 <0>         0.3639
     31 H11         1.3852    2.9853    0.0049 H         1 <0>         0.3743
@<TRIPOS>BOND
     1    1    2 1
     2    1   25 1
     3    1   26 1
     4    1   27 1
     5    2    3 1
     6    2   12 1
     7    2    4 1
     8    4    5 1
     9    4    6 1
    10    4   24 1
    11    6    7 1
    12    6    8 1
    13    6   19 1
    14    8    9 1
    15    8   10 1
    16    8   14 1
    17   10   11 1
    18   10   12 1
    19   10   13 1
    20   13   28 1
    21   14   15 1
    22   14   29 1
    23   15   16 2
    24   15   17 2
    25   15   18 1
    26   19   20 1
    27   20   21 2
    28   20   22 2
    29   20   23 1
    30   24   30 1
    31   25   31 1
@<TRIPOS>MOLECULE
ZINC20572826
   29    29     0     0     0
SMALL
USER_CHARGES

@<TRIPOS>ATOM
      1 C1          0.0191    1.6340    0.1034 C.3       1 <0>        -0.0845
      2 C2          0.1228    0.1380    0.4069 C.3       1 <0>        -0.1838
      3 C3         -1.2600   -0.4385    0.5700 C.2       1 <0>         0.4923
      4 O1         -2.2378    0.2805    0.4542 O.co2     1 <0>        -0.6944
      5 O2         -1.4010   -1.6240    0.8177 O.co2     1 <0>        -0.7146
      6 C4          1.4230    2.2193   -0.0622 C.3       1 <0>         0.0317
      7 H1          2.0167    1.9957    0.8242 H         1 <0>         0.0928
      8 C5          1.3269    3.7128   -0.2389 C.2       1 <0>         0.4938
      9 O3          0.9941    4.4175    0.6987 O.co2     1 <0>        -0.6790
     10 O4          1.5821    4.2164   -1.3196 O.co2     1 <0>        -0.6814
     11 N1          2.0627    1.6282   -1.2402 N.pl3     1 <0>        -0.5703
     12 C6          3.4075    1.5751   -1.3217 C.2       1 <0>         0.3608
     13 C7          4.0124    1.1246   -2.4799 C.2       1 <0>        -0.4700
     14 C8          3.2329    0.8634   -3.7034 C.2       1 <0>         0.5594
     15 O5          2.0291    1.0383   -3.7266 O.2       1 <0>        -0.5008
     16 N2          3.8905    0.4255   -4.7969 N.am      1 <0>        -0.6095
     17 C9          5.2163    0.2286   -4.7851 C.2       1 <0>         0.5791
     18 S1          5.9656   -0.3288   -6.2200 S.2       1 <0>        -0.6048
     19 N3          5.9866    0.4453   -3.7098 N.am      1 <0>        -0.6124
     20 C10         5.4661    0.8903   -2.5476 C.2       1 <0>         0.5758
     21 O6          6.1765    1.0879   -1.5799 O.2       1 <0>        -0.5130
     22 H2         -0.5462    1.7796   -0.8171 H         1 <0>         0.0656
     23 H3         -0.4897    2.1371    0.9257 H         1 <0>         0.0890
     24 H4          0.6315   -0.3652   -0.4153 H         1 <0>         0.0505
     25 H5          0.6880   -0.0077    1.3274 H         1 <0>         0.0568
     26 H6          1.5187    1.2751   -1.9615 H         1 <0>         0.4221
     27 H7          4.0120    1.8846   -0.4819 H         1 <0>         0.1711
     28 H8          3.3924    0.2488   -5.6102 H         1 <0>         0.4393
     29 H9          6.9409    0.2822   -3.7700 H         1 <0>         0.4384
@<TRIPOS>BOND
     1    1    2 1
     2    1    6 1
     3    1   22 1
     4    1   23 1
     5    2    3 1
     6    2   24 1
     7    2   25 1
     8    3    4 2
     9    3    5 1
    10    6    7 1
    11    6    8 1
    12    6   11 1
    13    8    9 2
    14    8   10 1
    15   11   12 1
    16   11   26 1
    17   12   13 2
    18   12   27 1
    19   13   20 1
    20   13   14 1
    21   14   15 2
    22   14   16 am
    23   16   17 1
    24   16   28 1
    25   17   18 2
    26   17   19 1
    27   19   20 am
    28   19   29 1
    29   20   21 2
@<TRIPOS>MOLECULE
ZINC15206149
   39    39     0     0     0
SMALL
USER_CHARGES
(2R,4R,5R,6R)-5-acetamido-2,4-dihydroxy-6-[(1R,2S)-1,2,3-trihydroxypropyl]tetrahydropyran-2-carboxylic acid
@<TRIPOS>ATOM
      1 C1          0.6434    3.9916   -0.2210 C.3       1 <0>        -0.1718
      2 C2          0.7666    2.4903   -0.2664 C.2       1 <0>         0.5142
      3 O1          1.8440    1.9765   -0.4812 O.2       1 <0>        -0.5367
      4 N1         -0.3205    1.7187   -0.0682 N.am      1 <0>        -0.7132
      5 C3         -0.2007    0.2593   -0.1123 C.3       1 <0>         0.1312
      6 H1          0.7648   -0.0395    0.2957 H         1 <0>         0.0996
      7 C4         -0.3155   -0.2202   -1.5626 C.3       1 <0>         0.0912
      8 H2         -0.1770   -1.3006   -1.6015 H         1 <0>         0.0641
      9 C5         -1.7050    0.1380   -2.0987 C.3       1 <0>        -0.1435
     10 C6         -2.7695   -0.4880   -1.1939 C.3       1 <0>         0.2479
     11 O2         -2.5868   -0.0244    0.1454 O.3       1 <0>        -0.3549
     12 C7         -1.3233   -0.3714    0.7158 C.3       1 <0>         0.0578
     13 H3         -1.2723   -0.0005    1.7395 H         1 <0>         0.1147
     14 C8         -1.1642   -1.8931    0.7159 C.3       1 <0>         0.0414
     15 H4         -1.1029   -2.2521   -0.3115 H         1 <0>         0.1534
     16 C9          0.1145   -2.2721    1.4657 C.3       1 <0>         0.0701
     17 H5          0.9775   -1.8572    0.9450 H         1 <0>         0.1124
     18 C10         0.2385   -3.7960    1.5245 C.3       1 <0>         0.0518
     19 O3          1.4880   -4.1495    2.1210 O.3       1 <0>        -0.5674
     20 O4          0.0615   -1.7469    2.7936 O.3       1 <0>        -0.5485
     21 O5         -2.2902   -2.4898    1.3625 O.3       1 <0>        -0.5386
     22 C11        -4.1394   -0.0912   -1.6807 C.2       1 <0>         0.4656
     23 O6         -4.9600   -0.9410   -1.9344 O.co2     1 <0>        -0.6154
     24 O7         -2.6459   -1.9113   -1.2265 O.3       1 <0>        -0.5648
     25 O8          0.6836    0.4205   -2.3584 O.3       1 <0>        -0.5451
     26 H6          0.8080    4.3390    0.7989 H         1 <0>         0.0882
     27 H7          1.3875    4.4373   -0.8812 H         1 <0>         0.0888
     28 H8         -0.3543    4.2843   -0.5480 H         1 <0>         0.0800
     29 H9         -1.1829    2.1297    0.0996 H         1 <0>         0.4070
     30 H10        -1.8152   -0.2484   -3.1120 H         1 <0>         0.0751
     31 H11        -1.8252    1.2213   -2.1069 H         1 <0>         0.0989
     32 H12        -0.5773   -4.2042    2.1210 H         1 <0>         0.0563
     33 H13         0.1897   -4.2037    0.5148 H         1 <0>         0.0561
     34 H14         1.6348   -5.1027    2.1908 H         1 <0>         0.3763
     35 H15        -0.7204   -2.0192    3.2933 H         1 <0>         0.3682
     36 H16        -2.4550   -2.1542    2.2544 H         1 <0>         0.3671
     37 H17        -3.3422   -2.3777   -0.7442 H         1 <0>         0.3896
     38 H18         0.6692    0.1628   -3.2903 H         1 <0>         0.3709
     39 O9         -4.4479    1.2063   -1.8324 O.co2     1 <0>        -0.7381
@<TRIPOS>BOND
     1    1    2 1
     2    1   26 1
     3    1   27 1
     4    1   28 1
     5    2    3 2
     6    2    4 am
     7    4    5 1
     8    4   29 1
     9    5    6 1
    10    5   12 1
    11    5    7 1
    12    7    8 1
    13    7    9 1
    14    7   25 1
    15    9   10 1
    16    9   30 1
    17    9   31 1
    18   10   11 1
    19   10   22 1
    20   10   24 1
    21   11   12 1
    22   12   13 1
    23   12   14 1
    24   14   15 1
    25   14   16 1
    26   14   21 1
    27   16   17 1
    28   16   18 1
    29   16   20 1
    30   18   19 1
    31   18   32 1
    32   18   33 1
    33   19   34 1
    34   20   35 1
    35   21   36 1
    36   22   23 2
    37   22   39 1
    38   24   37 1
    39   25   38 1
@<TRIPOS>MOLECULE
ZINC40528948
   27    27     0     0     0
SMALL
USER_CHARGES

@<TRIPOS>ATOM
      1 C1         -0.0187    1.5258    0.0104 C.3       1 <0>        -0.1978
      2 C2          1.3165    0.7789   -0.0063 C.3       1 <0>        -0.2007
      3 C3          0.0021   -0.0041    0.0020 C.3       1 <0>         0.1146
      4 N1         -0.3911   -0.6791   -1.2373 N.am      1 <0>        -0.7245
      5 C4         -0.8770   -1.9355   -1.1955 C.2       1 <0>         0.7210
      6 O1         -0.9890   -2.5088   -0.1291 O.2       1 <0>        -0.5933
      7 N2         -1.2386   -2.5565   -2.3356 N.am      1 <0>        -0.7017
      8 C5         -1.7668   -3.9222   -2.2901 C.3       1 <0>         0.1112
      9 H1         -2.3587   -4.0529   -1.3842 H         1 <0>         0.0896
     10 C6         -2.6489   -4.1690   -3.5156 C.3       1 <0>        -0.1336
     11 C7         -3.8580   -3.2717   -3.4532 C.2       1 <0>         0.5116
     12 O2         -4.0002   -2.5098   -2.5203 O.2       1 <0>        -0.5316
     13 N3         -4.7813   -3.3159   -4.4340 N.am      1 <0>        -0.8642
     14 C8         -0.6230   -4.9034   -2.2887 C.2       1 <0>         0.4898
     15 O3          0.5268   -4.4993   -2.3226 O.co2     1 <0>        -0.6801
     16 O4         -0.8474   -6.1013   -2.2537 O.co2     1 <0>        -0.6997
     17 H2         -0.3072    2.0201    0.9381 H         1 <0>         0.0985
     18 H3         -0.3248    2.0300   -0.9061 H         1 <0>         0.0923
     19 H4          1.8888    0.7918   -0.9339 H         1 <0>         0.0941
     20 H5          1.9064    0.7818    0.9103 H         1 <0>         0.0981
     21 H6         -0.2728   -0.5162    0.9241 H         1 <0>         0.1359
     22 H7         -0.3017   -0.2218   -2.0881 H         1 <0>         0.3903
     23 H8         -1.1493   -2.0992   -3.1864 H         1 <0>         0.3816
     24 H9         -2.0819   -3.9523   -4.4210 H         1 <0>         0.0913
     25 H10        -2.9698   -5.2107   -3.5285 H         1 <0>         0.1141
     26 H11        -4.6676   -3.9252   -5.1801 H         1 <0>         0.3991
     27 H12        -5.5596   -2.7383   -4.3938 H         1 <0>         0.3940
@<TRIPOS>BOND
     1    1    3 1
     2    1    2 1
     3    1   17 1
     4    1   18 1
     5    2    3 1
     6    2   19 1
     7    2   20 1
     8    3    4 1
     9    3   21 1
    10    4    5 am
    11    4   22 1
    12    5    6 2
    13    5    7 am
    14    7    8 1
    15    7   23 1
    16    8    9 1
    17    8   10 1
    18    8   14 1
    19   10   11 1
    20   10   24 1
    21   10   25 1
    22   11   12 2
    23   11   13 am
    24   13   26 1
    25   13   27 1
    26   14   15 2
    27   14   16 1
@<TRIPOS>MOLECULE
ZINC40580237
   34    34     0     0     0
SMALL
USER_CHARGES

@<TRIPOS>ATOM
      1 C1         -0.0187    1.5258    0.0104 C.3       1 <0>        -0.1894
      2 C2          1.3165    0.7789   -0.0063 C.3       1 <0>        -0.1941
      3 C3          0.0021   -0.0041    0.0020 C.3       1 <0>         0.0808
      4 N1         -0.3911   -0.6791   -1.2373 N.am      1 <0>        -0.7023
      5 C4         -0.8770   -1.9355   -1.1955 C.2       1 <0>         0.5176
      6 O1         -0.9887   -2.5073   -0.1318 O.2       1 <0>        -0.5336
      7 C5         -1.2814   -2.6299   -2.4703 C.3       1 <0>         0.1268
      8 N2         -1.7734   -3.9743   -2.1593 N.am      1 <0>        -0.7440
      9 C6         -2.1934   -4.7844   -3.1511 C.2       1 <0>         0.7220
     10 O2         -2.1639   -4.3995   -4.3041 O.2       1 <0>        -0.5971
     11 N3         -2.6460   -6.0212   -2.8650 N.am      1 <0>        -0.6997
     12 C7         -3.1025   -6.9018   -3.9431 C.3       1 <0>         0.1115
     13 H1         -2.4942   -6.7336   -4.8318 H         1 <0>         0.0898
     14 C8         -2.9680   -8.3605   -3.5016 C.3       1 <0>        -0.1339
     15 C9         -1.5115   -8.6935   -3.3046 C.2       1 <0>         0.5119
     16 O3         -0.6645   -7.8474   -3.4983 O.2       1 <0>        -0.5318
     17 N4         -1.1502   -9.9315   -2.9132 N.am      1 <0>        -0.8641
     18 C10        -4.5457   -6.6034   -4.2584 C.2       1 <0>         0.4900
     19 O4         -5.1379   -5.7356   -3.6398 O.co2     1 <0>        -0.6799
     20 O5         -5.1209   -7.2298   -5.1320 O.co2     1 <0>        -0.6998
     21 H2         -0.3072    2.0201    0.9381 H         1 <0>         0.1031
     22 H3         -0.3248    2.0300   -0.9061 H         1 <0>         0.0985
     23 H4          1.8888    0.7918   -0.9339 H         1 <0>         0.0976
     24 H5          1.9064    0.7818    0.9103 H         1 <0>         0.1016
     25 H6         -0.2728   -0.5162    0.9241 H         1 <0>         0.1384
     26 H7         -0.3017   -0.2218   -2.0881 H         1 <0>         0.4054
     27 H8         -2.0698   -2.0589   -2.9607 H         1 <0>         0.0966
     28 H9         -0.4194   -2.7029   -3.1335 H         1 <0>         0.0944
     29 H10        -1.7970   -4.2814   -1.2395 H         1 <0>         0.4015
     30 H11        -2.6696   -6.3283   -1.9452 H         1 <0>         0.3835
     31 H12        -3.5043   -8.5073   -2.5641 H         1 <0>         0.0918
     32 H13        -3.3894   -9.0122   -4.2670 H         1 <0>         0.1141
     33 H14        -1.8277  -10.6083   -2.7583 H         1 <0>         0.3990
     34 H15        -0.2127  -10.1458   -2.7864 H         1 <0>         0.3940
@<TRIPOS>BOND
     1    1    3 1
     2    1    2 1
     3    1   21 1
     4    1   22 1
     5    2    3 1
     6    2   23 1
     7    2   24 1
     8    3    4 1
     9    3   25 1
    10    4    5 am
    11    4   26 1
    12    5    6 2
    13    5    7 1
    14    7    8 1
    15    7   27 1
    16    7   28 1
    17    8    9 am
    18    8   29 1
    19    9   10 2
    20    9   11 am
    21   11   12 1
    22   11   30 1
    23   12   13 1
    24   12   14 1
    25   12   18 1
    26   14   15 1
    27   14   31 1
    28   14   32 1
    29   15   16 2
    30   15   17 am
    31   17   33 1
    32   17   34 1
    33   18   19 2
    34   18   20 1
@<TRIPOS>MOLECULE
ZINC45012440
   34    34     0     0     0
SMALL
USER_CHARGES

@<TRIPOS>ATOM
      1 C1         -0.0184    1.5028    0.0103 C.3       1 <0>        -0.0700
      2 C2          0.0021   -0.0041    0.0020 C.2       1 <0>         0.2463
      3 N1          0.0076   -0.7759   -1.0906 N.2       1 <0>        -0.5300
      4 C3          0.0262   -2.0345   -0.7496 C.2       1 <0>         0.2890
      5 O1          0.0333   -2.1066    0.5874 O.3       1 <0>        -0.0948
      6 N2          0.0229   -0.7667    1.0572 N.2       1 <0>        -0.3405
      7 C4          0.0378   -3.2062   -1.6973 C.3       1 <0>         0.2287
      8 N3          1.4226   -3.5671   -2.0107 N.am      1 <0>        -0.7506
      9 C5          1.6791   -4.5940   -2.8451 C.2       1 <0>         0.7177
     10 O2          0.7611   -5.2208   -3.3377 O.2       1 <0>        -0.5857
     11 N4          2.9531   -4.9260   -3.1334 N.am      1 <0>        -0.7064
     12 C6          3.2318   -6.0422   -4.0404 C.3       1 <0>         0.0923
     13 H1          2.4675   -6.0793   -4.8166 H         1 <0>         0.0857
     14 C7          4.6049   -5.8443   -4.6857 C.3       1 <0>        -0.0928
     15 C8          4.5762   -4.5987   -5.5737 C.3       1 <0>        -0.1399
     16 C9          5.9286   -4.4037   -6.2094 C.2       1 <0>         0.5142
     17 O3          6.8269   -5.1842   -5.9752 O.2       1 <0>        -0.5385
     18 N5          6.1399   -3.3621   -7.0381 N.am      1 <0>        -0.8631
     19 C10         3.2229   -7.3341   -3.2645 C.2       1 <0>         0.4897
     20 O4          3.0041   -7.3235   -2.0652 O.co2     1 <0>        -0.6848
     21 O5          3.4346   -8.3900   -3.8362 O.co2     1 <0>        -0.6963
     22 H2          1.0042    1.8801    0.0026 H         1 <0>         0.0963
     23 H3         -0.5455    1.8639   -0.8728 H         1 <0>         0.0974
     24 H4         -0.5286    1.8543    0.9071 H         1 <0>         0.0903
     25 H5         -0.4624   -4.0552   -1.2315 H         1 <0>         0.1076
     26 H6         -0.4839   -2.9360   -2.6154 H         1 <0>         0.1159
     27 H7          2.1550   -3.0670   -1.6177 H         1 <0>         0.3960
     28 H8          3.6854   -4.4259   -2.7404 H         1 <0>         0.3870
     29 H9          5.3574   -5.7184   -3.9074 H         1 <0>         0.0680
     30 H10         4.8508   -6.7166   -5.2913 H         1 <0>         0.0922
     31 H11         3.8237   -4.7246   -6.3521 H         1 <0>         0.0939
     32 H12         4.3303   -3.7264   -4.9682 H         1 <0>         0.0895
     33 H13         5.4214   -2.7378   -7.2253 H         1 <0>         0.3994
     34 H14         7.0104   -3.2366   -7.4472 H         1 <0>         0.3963
@<TRIPOS>BOND
     1    1    2 1
     2    1   22 1
     3    1   23 1
     4    1   24 1
     5    2    6 2
     6    2    3 1
     7    3    4 2
     8    4    5 1
     9    4    7 1
    10    5    6 1
    11    7    8 1
    12    7   25 1
    13    7   26 1
    14    8    9 am
    15    8   27 1
    16    9   10 2
    17    9   11 am
    18   11   12 1
    19   11   28 1
    20   12   13 1
    21   12   14 1
    22   12   19 1
    23   14   15 1
    24   14   29 1
    25   14   30 1
    26   15   16 1
    27   15   31 1
    28   15   32 1
    29   16   17 2
    30   16   18 am
    31   18   33 1
    32   18   34 1
    33   19   20 2
    34   19   21 1
@<TRIPOS>MOLECULE
ZINC16137407
   20    21     0     0     0
SMALL
USER_CHARGES

@<TRIPOS>ATOM
      1 C1         -0.0127    1.0858    0.0080 C.3       1 <0>         0.3148
      2 H1          0.0021   -0.0041    0.0020 H         1 <0>         0.1054
      3 C2         -0.5179    1.6201   -1.3666 C.3       1 <0>         0.1784
      4 H2         -0.7580    2.6798   -1.2799 H         1 <0>         0.0498
      5 N1          0.6809    1.4571   -2.1669 N.2       1 <0>        -0.5522
      6 C3          1.7262    1.6254   -1.3096 C.2       1 <0>         0.5554
      7 N2          2.9998    1.7987   -1.7120 N.2       1 <0>        -0.4190
      8 N3          3.2825    1.8111   -2.9705 N.pl3     1 <0>         0.2602
      9 O1          2.3259    1.6542   -3.8620 O.2       1 <0>        -0.3707
     10 O2          4.5279    1.9805   -3.3640 O.3       1 <0>        -0.3987
     11 N4          1.3456    1.6002   -0.0022 N.pl3     1 <0>        -0.7217
     12 N5         -1.7181    0.8746   -1.6786 N.3       1 <0>        -0.4208
     13 N6         -2.6270    1.0974   -0.6666 N.pl3     1 <0>        -0.5099
     14 C4         -2.2776    1.5129    0.5628 C.2       1 <0>         0.5795
     15 S1         -3.5087    1.9964    1.6498 S.2       1 <0>        -0.6423
     16 N7         -0.9663    1.5621    0.9907 N.pl3     1 <0>        -0.6773
     17 H3          1.8737    1.8704    0.7653 H         1 <0>         0.4202
     18 H4         -2.0956    1.1542   -2.5716 H         1 <0>         0.3718
     19 H5         -3.5673    0.9468   -0.8514 H         1 <0>         0.4428
     20 H6         -0.6978    1.8922    1.8623 H         1 <0>         0.4342
@<TRIPOS>BOND
     1    1    2 1
     2    1   11 1
     3    1   16 1
     4    1    3 1
     5    3    4 1
     6    3    5 1
     7    3   12 1
     8    5    6 1
     9    6    7 2
    10    6   11 1
    11    7    8 1
    12    8    9 2
    13    8   10 1
    14   11   17 1
    15   12   13 1
    16   12   18 1
    17   13   14 1
    18   13   19 1
    19   14   15 2
    20   14   16 1
    21   16   20 1
@<TRIPOS>MOLECULE
ZINC03650321
   30    32     0     0     0
SMALL
USER_CHARGES
1-[3-hydroxy-6-(hydroxymethyl)-3-oxo-2,4,7-trioxa-3$l^{5}-phosphabicyclo[3.3.0]oct-8-yl]pyrimidine-2,4-dione
@<TRIPOS>ATOM
      1 C1          4.1673    5.4462    0.8996 C.2       1 <0>        -0.3006
      2 C2          3.6343    4.2326    1.1570 C.2       1 <0>         0.1760
      3 N1          2.2828    4.0490    1.0474 N.am      1 <0>        -0.5419
      4 C3          1.4790    5.0690    0.6960 C.2       1 <0>         0.6954
      5 O1          0.2803    4.8849    0.6091 O.2       1 <0>        -0.5144
      6 N2          1.9830    6.2904    0.4397 N.am      1 <0>        -0.6614
      7 H1          1.3708    7.0374    0.1804 H         1 <0>         0.4373
      8 C4          3.3101    6.5109    0.5312 C.2       1 <0>         0.5527
      9 O2          3.7670    7.6155    0.2986 O.2       1 <0>        -0.5234
     10 C5          1.7050    2.7309    1.3213 C.3       1 <0>         0.2853
     11 H2          0.7988    2.8400    1.9170 H         1 <0>         0.1549
     12 C6          1.3794    2.0136   -0.0004 C.3       1 <0>         0.0251
     13 H3          1.5976    2.6496   -0.8584 H         1 <0>         0.1208
     14 C7          2.2960    0.7651    0.0027 C.3       1 <0>         0.0050
     15 H4          2.7043    0.5202   -0.9778 H         1 <0>         0.1361
     16 C8          3.3863    1.1660    1.0299 C.3       1 <0>         0.0738
     17 H5          4.1453    1.7907    0.5590 H         1 <0>         0.0968
     18 O3          2.6577    1.9159    2.0250 O.3       1 <0>        -0.3300
     19 C9          4.0222   -0.0783    1.6528 C.3       1 <0>         0.0904
     20 O4          5.0995    0.3137    2.5060 O.3       1 <0>        -0.5747
     21 O5          1.5275   -0.3183    0.5778 O.3       1 <0>        -0.6446
     22 P1          0.0335   -0.0195   -0.0060 P.3       1 <0>         2.0757
     23 O6         -1.0070   -0.5662    0.8934 O.2       1 <0>        -1.0240
     24 O7          0.0058    1.6069   -0.0093 O.3       1 <0>        -0.6383
     25 H6          5.2329    5.6037    0.9781 H         1 <0>         0.1722
     26 H7          4.2722    3.4096    1.4437 H         1 <0>         0.1817
     27 H8          3.2741   -0.6156    2.2357 H         1 <0>         0.0784
     28 H9          4.4017   -0.7265    0.8629 H         1 <0>         0.0712
     29 H10         5.5500   -0.4262    2.9358 H         1 <0>         0.3842
     30 O8         -0.1308   -0.6027   -1.4977 O.3       1 <0>        -1.0595
@<TRIPOS>BOND
     1    1    8 1
     2    1    2 2
     3    1   25 1
     4    2    3 1
     5    2   26 1
     6    3    4 am
     7    3   10 1
     8    4    5 2
     9    4    6 am
    10    6    7 1
    11    6    8 am
    12    8    9 2
    13   10   11 1
    14   10   18 1
    15   10   12 1
    16   12   13 1
    17   12   24 1
    18   12   14 1
    19   14   15 1
    20   14   16 1
    21   14   21 1
    22   16   17 1
    23   16   18 1
    24   16   19 1
    25   19   20 1
    26   19   27 1
    27   19   28 1
    28   20   29 1
    29   21   22 1
    30   22   23 2
    31   22   24 1
    32   22   30 1
@<TRIPOS>MOLECULE
ZINC22047269
   36    36     0     0     0
SMALL
USER_CHARGES
(4R,5S,6S)-5-acetamido-4-hydroxy-6-[(1S,2R)-1,2,3-trihydroxypropyl]-5,6-dihydro-4H-pyran-2-carboxylic acid
@<TRIPOS>ATOM
      1 C1         -4.5985    4.8377    0.8056 C.3       1 <0>        -0.1690
      2 C2         -3.3515    4.0408    1.0903 C.2       1 <0>         0.5093
      3 O1         -3.2495    3.4254    2.1303 O.2       1 <0>        -0.5245
      4 N1         -2.3498    4.0120    0.1891 N.am      1 <0>        -0.7343
      5 C3         -1.1376    3.2373    0.4659 C.3       1 <0>         0.1364
      6 H1         -0.9688    3.3058    1.5507 H         1 <0>         0.1165
      7 C4         -1.3400    1.7840    0.0182 C.3       1 <0>         0.1538
      8 H2         -1.8146    1.7197   -0.9721 H         1 <0>         0.0465
      9 C5         -0.0126    1.0758    0.0080 C.2       1 <0>        -0.3199
     10 C6          1.1389    1.7310    0.0005 C.2       1 <0>         0.0823
     11 O2          1.2191    3.0836    0.0146 O.3       1 <0>        -0.2404
     12 C7          0.0411    3.8202   -0.3254 C.3       1 <0>         0.0915
     13 H3         -0.0956    3.7087   -1.4112 H         1 <0>         0.0796
     14 C8          0.2304    5.2935    0.0416 C.3       1 <0>         0.1416
     15 H4         -0.6511    5.8902   -0.2358 H         1 <0>         0.0769
     16 C9          1.4961    5.8282   -0.6313 C.3       1 <0>         0.0838
     17 H5          1.4193    5.7720   -1.7272 H         1 <0>         0.0559
     18 C10         1.7539    7.2628   -0.1660 C.3       1 <0>         0.0519
     19 O3          2.8673    7.8025   -0.8808 O.3       1 <0>        -0.5975
     20 O4          2.6087    5.0049   -0.2757 O.3       1 <0>        -0.5374
     21 O5          0.3554    5.4188    1.4596 O.3       1 <0>        -0.5665
     22 C11         2.3900    0.9530   -0.0248 C.2       1 <0>         0.5008
     23 O6          2.3501   -0.2614   -0.0383 O.co2     1 <0>        -0.6211
     24 O7          3.5786    1.5884   -0.0330 O.co2     1 <0>        -0.7268
     25 O8         -2.2238    1.1264    0.9285 O.3       1 <0>        -0.5741
     26 H6         -4.5072    5.3227   -0.1775 H         1 <0>         0.0710
     27 H7         -4.7284    5.6055    1.5826 H         1 <0>         0.0894
     28 H8         -5.4701    4.1666    0.8039 H         1 <0>         0.0902
     29 H9         -2.4424    4.5701   -0.7542 H         1 <0>         0.4073
     30 H10        -0.0195   -0.0242    0.0069 H         1 <0>         0.1340
     31 H11         0.8618    7.8767   -0.3590 H         1 <0>         0.0399
     32 H12         1.9742    7.2647    0.9117 H         1 <0>         0.0541
     33 H13         3.2037    8.8304   -0.6802 H         1 <0>         0.4069
     34 H14         3.6106    5.2352   -0.6670 H         1 <0>         0.4022
     35 H15         0.4991    6.4104    1.9136 H         1 <0>         0.3943
     36 H16        -2.4901    0.0708    0.7709 H         1 <0>         0.3952
@<TRIPOS>BOND
     1    1    2 1
     2    1   26 1
     3    1   27 1
     4    1   28 1
     5    2    3 2
     6    2    4 am
     7    4    5 1
     8    4   29 1
     9    5    6 1
    10    5   12 1
    11    5    7 1
    12    7    8 1
    13    7    9 1
    14    7   25 1
    15    9   10 2
    16    9   30 1
    17   10   11 1
    18   10   22 1
    19   11   12 1
    20   12   13 1
    21   12   14 1
    22   14   15 1
    23   14   16 1
    24   14   21 1
    25   16   17 1
    26   16   18 1
    27   16   20 1
    28   18   19 1
    29   18   31 1
    30   18   32 1
    31   19   33 1
    32   20   34 1
    33   21   35 1
    34   22   23 2
    35   22   24 1
    36   25   36 1
@<TRIPOS>MOLECULE
ZINC37411326
   33    33     0     0     0
SMALL
USER_CHARGES

@<TRIPOS>ATOM
      1 C1         -0.0178    1.4608    0.0101 C.3       1 <0>         0.0822
      2 N1          0.0021   -0.0041    0.0020 N.am      1 <0>        -0.3400
      3 C2         -1.1651   -0.6746    0.0041 C.2       1 <0>         0.4792
      4 O1         -2.2225   -0.0667    0.0121 O.2       1 <0>        -0.5350
      5 C3         -1.1571   -2.0873   -0.0037 C.2       1 <0>        -0.1985
      6 C4          0.0510   -2.7190   -0.0130 C.2       1 <0>        -0.0255
      7 C5          1.2226   -1.9241   -0.0144 C.2       1 <0>         0.0370
      8 N2          1.1322   -0.6131   -0.0120 N.2       1 <0>        -0.1872
      9 C6          2.5523   -2.5712   -0.0239 C.2       1 <0>         0.5852
     10 O2          2.6381   -3.7837   -0.0305 O.2       1 <0>        -0.5312
     11 N3          3.6690   -1.8166   -0.0252 N.am      1 <0>        -0.6725
     12 C7          4.9863   -2.4576   -0.0346 C.3       1 <0>         0.0723
     13 H1          4.9418   -3.3705   -0.6285 H         1 <0>         0.0885
     14 C8          6.0141   -1.5022   -0.6441 C.3       1 <0>        -0.0928
     15 C9          5.6728   -1.2569   -2.1153 C.3       1 <0>        -0.1419
     16 C10         6.6852   -0.3157   -2.7156 C.2       1 <0>         0.5150
     17 O3          7.5905    0.1163   -2.0340 O.2       1 <0>        -0.5379
     18 N4          6.5845    0.0459   -4.0101 N.am      1 <0>        -0.8630
     19 C11         5.3903   -2.7960    1.3772 C.2       1 <0>         0.4917
     20 O4          4.6469   -2.5267    2.3053 O.co2     1 <0>        -0.6835
     21 O5          6.4607   -3.3391    1.5914 O.co2     1 <0>        -0.6924
     22 H2          1.0048    1.8381    0.0023 H         1 <0>         0.1026
     23 H3         -0.5450    1.8219   -0.8730 H         1 <0>         0.0866
     24 H4         -0.5280    1.8123    0.9069 H         1 <0>         0.0877
     25 H5         -2.0793   -2.6493   -0.0019 H         1 <0>         0.1672
     26 H6          0.1127   -3.7972   -0.0188 H         1 <0>         0.1645
     27 H7          3.6005   -0.8490   -0.0199 H         1 <0>         0.3985
     28 H8          5.9952   -0.5555   -0.1041 H         1 <0>         0.0697
     29 H9          7.0083   -1.9428   -0.5704 H         1 <0>         0.0931
     30 H10         5.6916   -2.2035   -2.6553 H         1 <0>         0.0942
     31 H11         4.6786   -0.8162   -2.1890 H         1 <0>         0.0902
     32 H12         5.8604   -0.2996   -4.5553 H         1 <0>         0.3993
     33 H13         7.2361    0.6516   -4.3965 H         1 <0>         0.3965
@<TRIPOS>BOND
     1    1    2 1
     2    1   22 1
     3    1   23 1
     4    1   24 1
     5    2    8 1
     6    2    3 am
     7    3    4 2
     8    3    5 1
     9    5    6 2
    10    5   25 1
    11    6    7 1
    12    6   26 1
    13    7    8 2
    14    7    9 1
    15    9   10 2
    16    9   11 am
    17   11   12 1
    18   11   27 1
    19   12   13 1
    20   12   14 1
    21   12   19 1
    22   14   15 1
    23   14   28 1
    24   14   29 1
    25   15   16 1
    26   15   30 1
    27   15   31 1
    28   16   17 2
    29   16   18 am
    30   18   32 1
    31   18   33 1
    32   19   20 2
    33   19   21 1
@<TRIPOS>MOLECULE
ZINC37455420
   36    36     0     0     0
SMALL
USER_CHARGES

@<TRIPOS>ATOM
      1 C1         -0.0173    1.4248    0.0099 C.3       1 <0>         0.0290
      2 O1          0.0021   -0.0041    0.0020 O.3       1 <0>        -0.3726
      3 C2         -1.2953   -0.6030    0.0112 C.3       1 <0>         0.0749
      4 H1         -2.0156    0.0378    0.5199 H         1 <0>         0.0765
      5 C3         -1.2523   -2.0132    0.6568 C.3       1 <0>        -0.1040
      6 C4         -2.4461   -2.7330   -0.0053 C.3       1 <0>         0.0679
      7 H2         -3.3156   -2.6889    0.6505 H         1 <0>         0.0709
      8 N1         -2.7341   -2.0323   -1.2653 N.am      1 <0>        -0.5862
      9 C5         -1.7648   -0.9329   -1.4277 C.3       1 <0>         0.0833
     10 C6         -3.7205   -2.3434   -2.1294 C.2       1 <0>         0.5355
     11 O2         -4.4624   -3.2733   -1.8934 O.2       1 <0>        -0.5336
     12 C7         -3.9015   -1.5359   -3.3888 C.3       1 <0>        -0.1152
     13 C8         -5.0817   -2.0934   -4.1869 C.3       1 <0>        -0.0822
     14 S1         -5.2996   -1.1213   -5.7029 S.3       1 <0>        -0.1905
     15 C9         -6.7178   -1.8998   -6.5235 C.3       1 <0>        -0.1314
     16 C10        -7.0094   -1.1787   -7.8142 C.2       1 <0>         0.5358
     17 O3         -6.3277   -0.2327   -8.1477 O.2       1 <0>        -0.5200
     18 N2         -8.0278   -1.5851   -8.5979 N.am      1 <0>        -0.8529
     19 C11        -2.0874   -4.1698   -0.2845 C.2       1 <0>         0.5005
     20 O4         -2.3046   -5.0266    0.5552 O.co2     1 <0>        -0.6957
     21 O5         -1.5802   -4.4755   -1.3503 O.co2     1 <0>        -0.6828
     22 H3          1.0053    1.8021    0.0021 H         1 <0>         0.0845
     23 H4         -0.5445    1.7859   -0.8732 H         1 <0>         0.0409
     24 H5         -0.5275    1.7763    0.9067 H         1 <0>         0.0403
     25 H6         -0.3165   -2.5184    0.4176 H         1 <0>         0.0860
     26 H7         -1.3916   -1.9478    1.7359 H         1 <0>         0.0809
     27 H8         -2.2466   -0.0649   -1.8779 H         1 <0>         0.0702
     28 H9         -0.9213   -1.2581   -2.0368 H         1 <0>         0.0790
     29 H10        -4.0978   -0.4958   -3.1284 H         1 <0>         0.0954
     30 H11        -2.9952   -1.5946   -3.9915 H         1 <0>         0.1009
     31 H12        -4.8854   -3.1334   -4.4473 H         1 <0>         0.0927
     32 H13        -5.9881   -2.0346   -3.5842 H         1 <0>         0.0892
     33 H14        -6.4870   -2.9440   -6.7348 H         1 <0>         0.1132
     34 H15        -7.5897   -1.8452   -5.8717 H         1 <0>         0.1119
     35 H16        -8.5730   -2.3417   -8.3312 H         1 <0>         0.4029
     36 H17        -8.2155   -1.1209   -9.4287 H         1 <0>         0.4049
@<TRIPOS>BOND
     1    1    2 1
     2    1   22 1
     3    1   23 1
     4    1   24 1
     5    2    3 1
     6    3    4 1
     7    3    9 1
     8    3    5 1
     9    5    6 1
    10    5   25 1
    11    5   26 1
    12    6    7 1
    13    6    8 1
    14    6   19 1
    15    8    9 1
    16    8   10 am
    17    9   27 1
    18    9   28 1
    19   10   11 2
    20   10   12 1
    21   12   13 1
    22   12   29 1
    23   12   30 1
    24   13   14 1
    25   13   31 1
    26   13   32 1
    27   14   15 1
    28   15   16 1
    29   15   33 1
    30   15   34 1
    31   16   17 2
    32   16   18 am
    33   18   35 1
    34   18   36 1
    35   19   20 2
    36   19   21 1
@<TRIPOS>MOLECULE
ZINC41041377
   32    31     0     0     0
SMALL
USER_CHARGES

@<TRIPOS>ATOM
      1 C1         -0.0187    1.5258    0.0104 C.3       1 <0>        -0.1791
      2 C2          0.0021   -0.0041    0.0020 C.3       1 <0>         0.1063
      3 H1         -1.0205   -0.3814    0.0098 H         1 <0>         0.0654
      4 C3          0.7182   -0.4975   -1.2568 C.3       1 <0>         0.1004
      5 H2          0.1910   -0.1364   -2.1398 H         1 <0>         0.0911
      6 C4          0.7387   -2.0043   -1.2651 C.2       1 <0>         0.4962
      7 O1         -0.1724   -2.6235   -1.7877 O.co2     1 <0>        -0.7025
      8 O2          1.6662   -2.6043   -0.7492 O.co2     1 <0>        -0.6793
      9 N1          2.0926    0.0096   -1.2672 N.am      1 <0>        -0.7027
     10 C5          2.7489    0.1537   -2.4355 C.2       1 <0>         0.7033
     11 O3          2.2003   -0.1372   -3.4809 O.2       1 <0>        -0.5911
     12 N2          4.0133    0.6202   -2.4451 N.am      1 <0>        -0.7546
     13 C6          4.7267    0.7767   -3.7150 C.3       1 <0>         0.1525
     14 C7          6.1322    1.3188   -3.4470 C.3       1 <0>        -0.1246
     15 C8          6.8660    1.4799   -4.7534 C.2       1 <0>         0.4650
     16 O4          6.3209    1.1908   -5.7922 O.2       1 <0>        -0.4971
     17 O5          8.1253    1.9445   -4.7629 O.3       1 <0>        -0.3564
     18 C9          8.7603    2.0717   -6.0367 C.3       1 <0>         0.0333
     19 O6          0.6932   -0.4774    1.1597 O.3       1 <0>        -0.5468
     20 H3          1.0039    1.9031    0.0027 H         1 <0>         0.0600
     21 H4         -0.5459    1.8868   -0.8726 H         1 <0>         0.0631
     22 H5         -0.5289    1.8773    0.9072 H         1 <0>         0.0522
     23 H6          2.5303    0.2417   -0.4332 H         1 <0>         0.3932
     24 H7          4.4510    0.8522   -1.6111 H         1 <0>         0.3924
     25 H8          4.7991   -0.1903   -4.2128 H         1 <0>         0.0744
     26 H9          4.1839    1.4741   -4.3531 H         1 <0>         0.0729
     27 H10         6.0599    2.2858   -2.9493 H         1 <0>         0.1126
     28 H11         6.6750    0.6214   -2.8089 H         1 <0>         0.1146
     29 H12         8.8046    1.0956   -6.5198 H         1 <0>         0.0611
     30 H13         8.1894    2.7600   -6.6601 H         1 <0>         0.0604
     31 H14         9.7711    2.4567   -5.9020 H         1 <0>         0.1008
     32 H15         0.2938   -0.2021    1.9962 H         1 <0>         0.3628
@<TRIPOS>BOND
     1    1    2 1
     2    1   20 1
     3    1   21 1
     4    1   22 1
     5    2    3 1
     6    2    4 1
     7    2   19 1
     8    4    5 1
     9    4    6 1
    10    4    9 1
    11    6    7 2
    12    6    8 1
    13    9   10 am
    14    9   23 1
    15   10   11 2
    16   10   12 am
    17   12   13 1
    18   12   24 1
    19   13   14 1
    20   13   25 1
    21   13   26 1
    22   14   15 1
    23   14   27 1
    24   14   28 1
    25   15   16 2
    26   15   17 1
    27   17   18 1
    28   18   29 1
    29   18   30 1
    30   18   31 1
    31   19   32 1
@<TRIPOS>MOLECULE
ZINC04666683
   35    36     0     0     0
SMALL
USER_CHARGES
6-(carboxymethylcarbamoylmethylcarbamoyl)bicyclo[2.2.1]hept-2-ene-5-carboxylic acid
@<TRIPOS>ATOM
      1 C1         -0.8787   -2.4359   -1.7246 C.3       1 <0>        -0.1118
      2 C2         -1.0277   -2.3316   -0.1626 C.3       1 <0>        -0.0569
      3 H1         -0.2186   -2.7519    0.4348 H         1 <0>         0.0947
      4 C3         -2.4135   -2.9590    0.0318 C.2       1 <0>        -0.1824
      5 C4         -3.1455   -2.6509   -1.0455 C.2       1 <0>        -0.1613
      6 C5         -2.2916   -1.8000   -1.9934 C.3       1 <0>        -0.0565
      7 H2         -2.6189   -1.7574   -3.0323 H         1 <0>         0.0954
      8 C6         -2.1349   -0.4383   -1.2445 C.3       1 <0>        -0.1166
      9 H3         -3.1084   -0.0544   -0.9397 H         1 <0>         0.0736
     10 C7         -1.2793   -0.7981   -0.0052 C.3       1 <0>        -0.0874
     11 H4         -1.8271   -0.5921    0.9144 H         1 <0>         0.0822
     12 C8          0.0244   -0.0426   -0.0240 C.2       1 <0>         0.5352
     13 O1          0.9944   -0.5205   -0.5732 O.2       1 <0>        -0.5443
     14 N1          0.1126    1.1642    0.5696 N.am      1 <0>        -0.6990
     15 C9          1.3800    1.8987    0.5513 C.3       1 <0>         0.1091
     16 C10         1.2122    3.2083    1.2779 C.2       1 <0>         0.5067
     17 O2          0.1395    3.4994    1.7631 O.2       1 <0>        -0.5507
     18 N2          2.2542    4.0559    1.3884 N.am      1 <0>        -0.7054
     19 C11         2.0911    5.3290    2.0946 C.3       1 <0>         0.0786
     20 C12         3.3949    6.0846    2.0759 C.2       1 <0>         0.4615
     21 O3          4.3612    5.6084    1.5287 O.co2     1 <0>        -0.6347
     22 C13        -1.4166    0.5636   -2.1114 C.2       1 <0>         0.4630
     23 O4         -0.7375    0.1851   -3.0363 O.co2     1 <0>        -0.6254
     24 H5         -0.0643   -1.8214   -2.1083 H         1 <0>         0.1089
     25 H6         -0.8127   -3.4677   -2.0698 H         1 <0>         0.0567
     26 H7         -2.7262   -3.5490    0.8806 H         1 <0>         0.1236
     27 H8         -4.1699   -2.9487   -1.2138 H         1 <0>         0.1181
     28 H9         -0.6643    1.5482    1.0054 H         1 <0>         0.4088
     29 H10         2.1506    1.3059    1.0442 H         1 <0>         0.0885
     30 H11         1.6739    2.0907   -0.4806 H         1 <0>         0.0955
     31 H12         3.1121    3.8231    1.0003 H         1 <0>         0.4084
     32 H13         1.3205    5.9218    1.6018 H         1 <0>         0.0730
     33 H14         1.7973    5.1370    3.1266 H         1 <0>         0.0710
     34 O5          3.4827    7.2865    2.6670 O.co2     1 <0>        -0.7645
     35 O6         -1.5312    1.8763   -1.8560 O.co2     1 <0>        -0.7555
@<TRIPOS>BOND
     1    1    6 1
     2    1    2 1
     3    1   24 1
     4    1   25 1
     5    2    3 1
     6    2   10 1
     7    2    4 1
     8    4    5 2
     9    4   26 1
    10    5    6 1
    11    5   27 1
    12    6    7 1
    13    6    8 1
    14    8    9 1
    15    8   10 1
    16    8   22 1
    17   10   11 1
    18   10   12 1
    19   12   13 2
    20   12   14 am
    21   14   15 1
    22   14   28 1
    23   15   16 1
    24   15   29 1
    25   15   30 1
    26   16   17 2
    27   16   18 am
    28   18   19 1
    29   18   31 1
    30   19   20 1
    31   19   32 1
    32   19   33 1
    33   20   21 2
    34   20   34 1
    35   22   23 2
    36   22   35 1
@<TRIPOS>MOLECULE
ZINC13359468
   35    35     0     0     0
SMALL
USER_CHARGES
3-[[2-(carboxymethylamino)-2-oxo-ethyl]sulfamoyl]-4-methoxy-benzoic acid
@<TRIPOS>ATOM
      1 C1          2.3062   -0.3068   -0.0216 C.3       1 <0>         0.0226
      2 O1          2.3651    1.1210   -0.0145 O.3       1 <0>        -0.3161
      3 C2          1.1825    1.7863    0.0004 C.ar      1 <0>         0.2122
      4 C3         -0.0126    1.0758    0.0080 C.ar      1 <0>        -0.2404
      5 C4         -1.2145    1.7468    0.0173 C.ar      1 <0>         0.0134
      6 C5         -1.2322    3.1448    0.0303 C.ar      1 <0>        -0.1686
      7 C6         -0.0285    3.8552    0.0221 C.ar      1 <0>         0.0446
      8 C7          1.1693    3.1762    0.0075 C.ar      1 <0>        -0.7176
      9 S1          2.6875    4.0705   -0.0028 S.o2      1 <0>         2.7111
     10 O2          3.4820    3.5098   -1.0389 O.2       1 <0>        -0.9547
     11 O3          2.3467    5.4495    0.0346 O.2       1 <0>        -0.9613
     12 N1          3.4626    3.7357    1.4218 N.pl3     1 <0>        -1.1033
     13 C8          3.9236    2.3737    1.7024 C.3       1 <0>         0.1078
     14 C9          4.8972    2.3999    2.8524 C.2       1 <0>         0.5048
     15 O4          5.1783    3.4525    3.3851 O.2       1 <0>        -0.5506
     16 N2          5.4556    1.2535    3.2888 N.am      1 <0>        -0.7028
     17 C10         6.4021    1.2789    4.4067 C.3       1 <0>         0.0765
     18 C11         6.8763   -0.1221    4.6954 C.2       1 <0>         0.4608
     19 O5          6.4658   -1.0469    4.0350 O.co2     1 <0>        -0.6349
     20 C12        -2.5174    3.8678    0.0459 C.2       1 <0>         0.4949
     21 O6         -2.5310    5.0828    0.0518 O.co2     1 <0>        -0.6275
     22 H1          3.3180   -0.7121   -0.0334 H         1 <0>         0.1084
     23 H2          1.7863   -0.6534    0.8715 H         1 <0>         0.0622
     24 H3          1.7693   -0.6438   -0.9083 H         1 <0>         0.0596
     25 H4          0.0021   -0.0041    0.0020 H         1 <0>         0.1338
     26 H5         -2.1424    1.1942    0.0184 H         1 <0>         0.1408
     27 H6         -0.0379    4.9352    0.0269 H         1 <0>         0.1543
     28 H7          3.6113    4.4414    2.0705 H         1 <0>         0.4252
     29 H8          3.0702    1.7477    1.9630 H         1 <0>         0.0946
     30 H9          4.4158    1.9675    0.8188 H         1 <0>         0.1127
     31 H10         5.2308    0.4116    2.8627 H         1 <0>         0.4090
     32 H11         7.2555    1.9049    4.1461 H         1 <0>         0.0735
     33 H12         5.9099    1.6852    5.2904 H         1 <0>         0.0735
     34 O7          7.7548   -0.3425    5.6860 O.co2     1 <0>        -0.7605
     35 O8         -3.6768    3.1811    0.0538 O.co2     1 <0>        -0.7579
@<TRIPOS>BOND
     1    1    2 1
     2    1   22 1
     3    1   23 1
     4    1   24 1
     5    2    3 1
     6    3    8 ar
     7    3    4 ar
     8    4    5 ar
     9    4   25 1
    10    5    6 ar
    11    5   26 1
    12    6    7 ar
    13    6   20 1
    14    7    8 ar
    15    7   27 1
    16    8    9 1
    17    9   10 2
    18    9   11 2
    19    9   12 1
    20   12   13 1
    21   12   28 1
    22   13   14 1
    23   13   29 1
    24   13   30 1
    25   14   15 2
    26   14   16 am
    27   16   17 1
    28   16   31 1
    29   17   18 1
    30   17   32 1
    31   17   33 1
    32   18   19 2
    33   18   34 1
    34   20   21 2
    35   20   35 1
@<TRIPOS>MOLECULE
ZINC37584119
   32    32     0     0     0
SMALL
USER_CHARGES

@<TRIPOS>ATOM
      1 C1         -0.0184    1.5028    0.0103 C.3       1 <0>        -0.1953
      2 C2          0.0021   -0.0041    0.0020 C.2       1 <0>         0.4251
      3 O1          1.0608   -0.5963   -0.0113 O.2       1 <0>        -0.4775
      4 C3         -1.2576   -0.7544    0.0100 C.2       1 <0>        -0.2776
      5 C4         -1.3991   -2.1630    0.0095 C.2       1 <0>        -0.0652
      6 C5         -2.7353   -2.4287    0.0185 C.2       1 <0>        -0.0299
      7 N1         -3.4170   -1.2307    0.0246 N.pl3     1 <0>        -0.5171
      8 H1         -4.3822   -1.1343    0.0314 H         1 <0>         0.4246
      9 C6         -2.5362   -0.2194    0.0256 C.2       1 <0>         0.0749
     10 C7         -3.3455   -3.7643    0.0214 C.2       1 <0>         0.5735
     11 O2         -2.6400   -4.7555    0.0154 O.2       1 <0>        -0.5369
     12 N2         -4.6872   -3.8922    0.0306 N.am      1 <0>        -0.6806
     13 C8         -5.2960   -5.2247    0.0334 C.3       1 <0>         0.0741
     14 H2         -4.6772   -5.9056    0.6178 H         1 <0>         0.0804
     15 C9         -6.6928   -5.1459    0.6529 C.3       1 <0>        -0.0825
     16 C10        -6.5756   -4.7513    2.1265 C.3       1 <0>        -0.1772
     17 C11        -7.9514   -4.6737    2.7366 C.2       1 <0>         0.4908
     18 O3         -8.9344   -4.9119    2.0560 O.co2     1 <0>        -0.6969
     19 O4         -8.0813   -4.3727    3.9109 O.co2     1 <0>        -0.7189
     20 C12        -5.4020   -5.7315   -1.3818 C.2       1 <0>         0.4981
     21 O5         -5.3465   -6.9286   -1.6064 O.co2     1 <0>        -0.6981
     22 O6         -5.5432   -4.9445   -2.3023 O.co2     1 <0>        -0.6996
     23 H3          1.0042    1.8801    0.0026 H         1 <0>         0.0774
     24 H4         -0.5455    1.8639   -0.8728 H         1 <0>         0.0889
     25 H5         -0.5286    1.8543    0.9071 H         1 <0>         0.0890
     26 H6         -0.5996   -2.8891    0.0031 H         1 <0>         0.1538
     27 H7         -2.7813    0.8324    0.0344 H         1 <0>         0.1802
     28 H8         -5.2497   -3.1019    0.0354 H         1 <0>         0.3853
     29 H9         -7.2838   -4.3991    0.1227 H         1 <0>         0.0598
     30 H10        -7.1803   -6.1176    0.5746 H         1 <0>         0.0744
     31 H11        -5.9846   -5.4980    2.6567 H         1 <0>         0.0541
     32 H12        -6.0881   -3.7795    2.2047 H         1 <0>         0.0488
@<TRIPOS>BOND
     1    1    2 1
     2    1   23 1
     3    1   24 1
     4    1   25 1
     5    2    3 2
     6    2    4 1
     7    4    9 2
     8    4    5 1
     9    5    6 2
    10    5   26 1
    11    6    7 1
    12    6   10 1
    13    7    8 1
    14    7    9 1
    15    9   27 1
    16   10   11 2
    17   10   12 am
    18   12   13 1
    19   12   28 1
    20   13   14 1
    21   13   15 1
    22   13   20 1
    23   15   16 1
    24   15   29 1
    25   15   30 1
    26   16   17 1
    27   16   31 1
    28   16   32 1
    29   17   18 2
    30   17   19 1
    31   20   21 2
    32   20   22 1
@<TRIPOS>MOLECULE
ZINC42451588
   34    33     0     0     0
SMALL
USER_CHARGES

@<TRIPOS>ATOM
      1 C1         -0.0187    1.5258    0.0104 C.3       1 <0>        -0.1744
      2 C2          0.0021   -0.0041    0.0020 C.3       1 <0>         0.1066
      3 N1         -1.3723   -0.5112    0.0124 N.am      1 <0>        -0.6366
      4 C3         -2.0716   -0.7579   -1.2510 C.3       1 <0>         0.1469
      5 C4         -1.8159   -2.1971   -1.7029 C.3       1 <0>        -0.0521
      6 C5         -2.5185   -2.4450   -2.9724 C.1       1 <0>         0.2259
      7 N2         -3.0608   -2.6363   -3.9521 N.1       1 <0>        -0.4569
      8 C6         -1.9934   -0.7507    1.1843 C.2       1 <0>         0.7041
      9 O1         -3.1341   -1.1715    1.1930 O.2       1 <0>        -0.5956
     10 N3         -1.3500   -0.5237    2.3467 N.am      1 <0>        -0.6970
     11 C7         -2.0251   -0.7840    3.6205 C.3       1 <0>         0.0905
     12 H1         -3.0845   -0.5457    3.5257 H         1 <0>         0.0754
     13 C8         -1.4027    0.0856    4.7147 C.3       1 <0>        -0.0822
     14 C9         -1.6712    1.5604    4.4083 C.3       1 <0>        -0.1748
     15 C10        -1.0581    2.4170    5.4860 C.2       1 <0>         0.4904
     16 O2         -0.4617    1.8962    6.4132 O.co2     1 <0>        -0.6978
     17 O3         -1.1585    3.6308    5.4308 O.co2     1 <0>        -0.7203
     18 C11        -1.8680   -2.2380    3.9844 C.2       1 <0>         0.4975
     19 O4         -0.8780   -2.8526    3.6256 O.co2     1 <0>        -0.7009
     20 O5         -2.7308   -2.7997    4.6375 O.co2     1 <0>        -0.7031
     21 H2          1.0039    1.9031    0.0027 H         1 <0>         0.0635
     22 H3         -0.5459    1.8868   -0.8726 H         1 <0>         0.0537
     23 H4         -0.5289    1.8773    0.9072 H         1 <0>         0.0652
     24 H5          0.5123   -0.3556   -0.8948 H         1 <0>         0.0749
     25 H6          0.5293   -0.3651    0.8851 H         1 <0>         0.0807
     26 H7         -3.1417   -0.6062   -1.1097 H         1 <0>         0.0898
     27 H8         -1.7041   -0.0678   -2.0105 H         1 <0>         0.0772
     28 H9         -0.7458   -2.3488   -1.8443 H         1 <0>         0.1083
     29 H10        -2.1835   -2.8871   -0.9434 H         1 <0>         0.1189
     30 H11        -0.4400   -0.1879    2.3398 H         1 <0>         0.3887
     31 H12        -1.8435   -0.1715    5.6778 H         1 <0>         0.0719
     32 H13        -0.3272   -0.0884    4.7492 H         1 <0>         0.0591
     33 H14        -1.2304    1.8175    3.4451 H         1 <0>         0.0504
     34 H15        -2.7466    1.7344    4.3738 H         1 <0>         0.0519
@<TRIPOS>BOND
     1    1    2 1
     2    1   21 1
     3    1   22 1
     4    1   23 1
     5    2    3 1
     6    2   24 1
     7    2   25 1
     8    3    4 1
     9    3    8 am
    10    4    5 1
    11    4   26 1
    12    4   27 1
    13    5    6 1
    14    5   28 1
    15    5   29 1
    16    6    7 3
    17    8    9 2
    18    8   10 am
    19   10   11 1
    20   10   30 1
    21   11   12 1
    22   11   13 1
    23   11   18 1
    24   13   14 1
    25   13   31 1
    26   13   32 1
    27   14   15 1
    28   14   33 1
    29   14   34 1
    30   15   16 2
    31   15   17 1
    32   18   19 2
    33   18   20 1
@<TRIPOS>MOLECULE
ZINC50930861
   36    37     0     0     0
SMALL
USER_CHARGES

@<TRIPOS>ATOM
      1 C1         -0.0037    1.5031    0.0329 C.3       1 <0>        -0.1155
      2 C2          1.4062    2.0969   -0.0062 C.3       1 <0>        -0.1345
      3 C3          2.1802    1.6468    1.2368 C.3       1 <0>         0.1138
      4 N1          2.1451    0.1798    1.3103 N.am      1 <0>        -0.6296
      5 C4          0.8429   -0.4989    1.2638 C.3       1 <0>         0.1632
      6 H1          0.2701   -0.2522    2.1577 H         1 <0>         0.0597
      7 C5          0.0838   -0.0248    0.0204 C.3       1 <0>        -0.1326
      8 C6          1.0555   -2.0124    1.1923 C.3       1 <0>        -0.0814
      9 C7         -0.3011   -2.7145    1.1051 C.3       1 <0>        -0.1863
     10 C8         -0.0988   -4.2068    1.1598 C.2       1 <0>         0.4883
     11 O1          1.0261   -4.6663    1.2593 O.co2     1 <0>        -0.6856
     12 O2         -1.0601   -4.9547    1.1046 O.co2     1 <0>        -0.7229
     13 C9          3.2859   -0.5299    1.4178 C.2       1 <0>         0.6970
     14 O3          3.2398   -1.7337    1.5819 O.2       1 <0>        -0.5574
     15 N2          4.4777    0.0950    1.3434 N.am      1 <0>        -0.7379
     16 C10         5.7142   -0.6562    1.5738 C.3       1 <0>         0.2560
     17 C11         6.8967    0.2674    1.4333 C.2       1 <0>         0.0397
     18 N3          7.5678    0.5281    0.3208 N.2       1 <0>        -0.3731
     19 N4          8.5038    1.3638    0.6172 N.2       1 <0>        -0.2007
     20 N5          8.4417    1.6346    1.8744 N.2       1 <0>        -0.2011
     21 N6          7.4619    0.9796    2.3972 N.2       1 <0>        -0.3748
     22 H2         -0.5105    1.8303    0.9408 H         1 <0>         0.0595
     23 H3         -0.5647    1.8418   -0.8381 H         1 <0>         0.0578
     24 H4          1.9223    1.7501   -0.9015 H         1 <0>         0.0663
     25 H5          1.3424    3.1849   -0.0209 H         1 <0>         0.0670
     26 H6          3.2141    1.9845    1.1656 H         1 <0>         0.0748
     27 H7          1.7165    2.0685    2.1286 H         1 <0>         0.0623
     28 H8         -0.9211   -0.4468    0.0247 H         1 <0>         0.0751
     29 H9          0.6124   -0.3516   -0.8751 H         1 <0>         0.0649
     30 H10         1.6475   -2.2549    0.3098 H         1 <0>         0.0636
     31 H11         1.5815   -2.3480    2.0861 H         1 <0>         0.0965
     32 H12        -0.9265   -2.4017    1.9413 H         1 <0>         0.0477
     33 H13        -0.7885   -2.4480    0.1673 H         1 <0>         0.0488
     34 H14         4.5168    1.0420    1.1374 H         1 <0>         0.3888
     35 H15         5.7007   -1.0790    2.5783 H         1 <0>         0.0700
     36 H16         5.7924   -1.4604    0.8421 H         1 <0>         0.0726
@<TRIPOS>BOND
     1    1    7 1
     2    1    2 1
     3    1   22 1
     4    1   23 1
     5    2    3 1
     6    2   24 1
     7    2   25 1
     8    3    4 1
     9    3   26 1
    10    3   27 1
    11    4    5 1
    12    4   13 am
    13    5    6 1
    14    5    7 1
    15    5    8 1
    16    7   28 1
    17    7   29 1
    18    8    9 1
    19    8   30 1
    20    8   31 1
    21    9   10 1
    22    9   32 1
    23    9   33 1
    24   10   11 2
    25   10   12 1
    26   13   14 2
    27   13   15 am
    28   15   16 1
    29   15   34 1
    30   16   17 1
    31   16   35 1
    32   16   36 1
    33   17   21 2
    34   17   18 1
    35   18   19 1
    36   19   20 2
    37   20   21 1
@<TRIPOS>MOLECULE
ZINC04356916
   31    32     0     0     0
SMALL
USER_CHARGES
2-[5-(2-furylmethylene)-4-oxo-2-thioxo-thiazolidin-3-yl]pentanedioic acid
@<TRIPOS>ATOM
      1 C1         -3.4420    2.1195    0.4172 C.2       1 <0>        -0.2335
      2 C2         -2.4888    1.0985    0.2801 C.2       1 <0>        -0.1644
      3 C3         -1.2617    1.7201    0.1632 C.2       1 <0>        -0.0097
      4 O1         -1.4679    3.0525    0.2178 O.3       1 <0>        -0.1124
      5 C4         -2.7780    3.2954    0.3705 C.2       1 <0>        -0.0089
      6 C5         -0.0126    1.0758    0.0080 C.2       1 <0>         0.0535
      7 C6          1.1122    1.8138   -0.2139 C.2       1 <0>        -0.1931
      8 C7          1.2470    3.2409   -0.5514 C.2       1 <0>         0.5295
      9 O2          0.2740    3.9627   -0.6754 O.2       1 <0>        -0.4465
     10 N1          2.4766    3.7012   -0.7094 N.am      1 <0>        -0.4856
     11 C8          3.5514    2.8969   -0.5782 C.2       1 <0>         0.2990
     12 S1          5.2071    3.2973   -0.7498 S.2       1 <0>        -0.2663
     13 S2          2.8280    1.3131   -0.1828 S.3       1 <0>         0.0006
     14 C9          2.6754    5.1143   -1.0406 C.3       1 <0>         0.0683
     15 H1          1.7077    5.6115   -1.1075 H         1 <0>         0.1099
     16 C10         3.4002    5.2263   -2.3834 C.3       1 <0>        -0.1067
     17 C11         2.5052    4.6724   -3.4938 C.3       1 <0>        -0.1520
     18 C12         3.2191    4.7827   -4.8164 C.2       1 <0>         0.4653
     19 O3          4.3298    5.2558   -4.8658 O.co2     1 <0>        -0.6311
     20 C13         3.5040    5.7703    0.0337 C.2       1 <0>         0.4794
     21 O4          3.8890    5.1237    0.9791 O.co2     1 <0>        -0.6233
     22 H2         -4.5078    1.9896    0.5339 H         1 <0>         0.1485
     23 H3         -2.6780    0.0352    0.2700 H         1 <0>         0.1534
     24 H4         -3.2297    4.2736    0.4439 H         1 <0>         0.2004
     25 H5          0.0498   -0.0011    0.0607 H         1 <0>         0.1734
     26 H6          3.6271    6.2727   -2.5876 H         1 <0>         0.0924
     27 H7          4.3273    4.6543   -2.3447 H         1 <0>         0.0942
     28 H8          2.2783    3.6260   -3.2895 H         1 <0>         0.0434
     29 H9          1.5781    5.2443   -3.5325 H         1 <0>         0.0590
     30 O5          2.6211    4.3553   -5.9395 O.co2     1 <0>        -0.7895
     31 O6          3.8144    7.0729   -0.0596 O.co2     1 <0>        -0.7471
@<TRIPOS>BOND
     1    1    5 2
     2    1    2 1
     3    1   22 1
     4    2    3 2
     5    2   23 1
     6    3    4 1
     7    3    6 1
     8    4    5 1
     9    5   24 1
    10    6    7 2
    11    6   25 1
    12    7   13 1
    13    7    8 1
    14    8    9 2
    15    8   10 am
    16   10   11 1
    17   10   14 1
    18   11   12 2
    19   11   13 1
    20   14   15 1
    21   14   16 1
    22   14   20 1
    23   16   17 1
    24   16   26 1
    25   16   27 1
    26   17   18 1
    27   17   28 1
    28   17   29 1
    29   18   19 2
    30   18   30 1
    31   20   21 2
    32   20   31 1
@<TRIPOS>MOLECULE
ZINC13029833
   37    38     0     0     0
SMALL
USER_CHARGES
3-[carboxymethyl-[(3S)-1,1-dioxothiolan-3-yl]sulfamoyl]-4-chloro-benzoic acid
@<TRIPOS>ATOM
      1 C1          4.5894    1.5690   -3.3285 C.ar      1 <0>        -0.0190
      2 C2          3.8280    2.2692   -2.4166 C.ar      1 <0>        -0.1436
      3 C3          2.4489    2.3012   -2.5413 C.ar      1 <0>         0.0438
      4 C4          1.8251    1.6217   -3.5749 C.ar      1 <0>        -0.6853
      5 C5          2.5753    0.9181   -4.4929 C.ar      1 <0>         0.0236
      6 C6          3.9669    0.8867   -4.3759 C.ar      1 <0>        -0.1268
      7 C7          4.7765    0.1354   -5.3561 C.2       1 <0>         0.4922
      8 O1          4.2324   -0.4569   -6.2665 O.co2     1 <0>        -0.6179
      9 S1          0.0696    1.6626   -3.7207 S.o2      1 <0>         2.6912
     10 O2         -0.2629    0.8664   -4.8498 O.2       1 <0>        -0.9365
     11 O3         -0.3154    3.0260   -3.6100 O.2       1 <0>        -0.9532
     12 N1         -0.5500    0.8867   -2.3954 N.pl3     1 <0>        -0.9516
     13 C8         -0.7973   -0.5566   -2.4407 C.3       1 <0>         0.0708
     14 C9         -2.2358   -0.8083   -2.8128 C.2       1 <0>         0.4564
     15 O4         -2.9782    0.1223   -3.0190 O.co2     1 <0>        -0.6231
     16 C10        -0.8509    1.6435   -1.1777 C.3       1 <0>         0.1507
     17 H1         -0.6158    2.6967   -1.3314 H         1 <0>         0.1184
     18 C11        -2.3398    1.4902   -0.8254 C.3       1 <0>        -0.1277
     19 C12        -2.5986    2.0085    0.6098 C.3       1 <0>        -0.5690
     20 S2         -0.9785    1.7312    1.4382 S.o2      1 <0>         2.3577
     21 O5         -1.1225    0.6978    2.4029 O.2       1 <0>        -0.9447
     22 O6         -0.4395    2.9858    1.8317 O.2       1 <0>        -0.9425
     23 C13        -0.0127    1.0858    0.0080 C.3       1 <0>        -0.6039
     24 Cl1         1.4977    3.1912   -1.3937 Cl        1 <0>        -0.0574
     25 H2          5.6650    1.5480   -3.2326 H         1 <0>         0.1477
     26 H3          4.3082    2.7972   -1.6062 H         1 <0>         0.1377
     27 H4          2.0881    0.3921   -5.3006 H         1 <0>         0.1581
     28 H5         -0.1443   -1.0139   -3.1841 H         1 <0>         0.0941
     29 H6         -0.5938   -0.9910   -1.4620 H         1 <0>         0.0860
     30 H7         -2.9397    2.0646   -1.5313 H         1 <0>         0.1115
     31 H8         -2.6196    0.4385   -0.8863 H         1 <0>         0.1080
     32 H9         -2.8502    3.0690    0.5983 H         1 <0>         0.1356
     33 H10        -3.3868    1.4311    1.0930 H         1 <0>         0.1398
     34 H11         0.0021   -0.0041    0.0020 H         1 <0>         0.1516
     35 H12         0.9991    1.4911    0.0005 H         1 <0>         0.1467
     36 O7          6.1184    0.1069   -5.2407 O.co2     1 <0>        -0.7530
     37 O8         -2.6922   -2.0665   -2.9152 O.co2     1 <0>        -0.7665
@<TRIPOS>BOND
     1    1    6 ar
     2    1    2 ar
     3    1   25 1
     4    2    3 ar
     5    2   26 1
     6    3    4 ar
     7    3   24 1
     8    4    5 ar
     9    4    9 1
    10    5    6 ar
    11    5   27 1
    12    6    7 1
    13    7    8 2
    14    7   36 1
    15    9   10 2
    16    9   11 2
    17    9   12 1
    18   12   13 1
    19   12   16 1
    20   13   14 1
    21   13   28 1
    22   13   29 1
    23   14   15 2
    24   14   37 1
    25   16   17 1
    26   16   23 1
    27   16   18 1
    28   18   19 1
    29   18   30 1
    30   18   31 1
    31   19   20 1
    32   19   32 1
    33   19   33 1
    34   20   21 2
    35   20   22 2
    36   20   23 1
    37   23   34 1
    38   23   35 1
@<TRIPOS>MOLECULE
ZINC16853712
   27    28     0     0     0
SMALL
USER_CHARGES
(2S)-3-(7-hydroxy-2-methyl-5-oxo-[1,3,4]thiadiazolo[3,2-a]pyrimidin-6-yl)-2-methyl-propanoic acid
@<TRIPOS>ATOM
      1 C1         -1.1569   -0.9673    0.0083 C.3       1 <0>        -0.0518
      2 C2          0.0021   -0.0041    0.0020 C.2       1 <0>         0.0944
      3 N1          1.2746   -0.2588   -0.0115 N.2       1 <0>        -0.2399
      4 N2          2.2239    0.7590   -0.0151 N.am      1 <0>        -0.3909
      5 C3          3.5820    0.6191   -0.0292 C.2       1 <0>         0.5335
      6 O1          4.0809   -0.4961   -0.0395 O.2       1 <0>        -0.5580
      7 C4          4.3973    1.7448   -0.0314 C.2       1 <0>        -0.4069
      8 C5          3.8242    3.0087   -0.0191 C.2       1 <0>         0.4552
      9 N3          2.4924    3.1076   -0.0055 N.2       1 <0>        -0.5037
     10 C6          1.7387    2.0383   -0.0036 C.2       1 <0>         0.3263
     11 S1         -0.0221    1.7814    0.0118 S.3       1 <0>        -0.0134
     12 O2          4.5996    4.1191   -0.0215 O.3       1 <0>        -0.6405
     13 C7          5.8967    1.5936   -0.0465 C.3       1 <0>         0.0207
     14 C8          6.4052    1.4102    1.3848 C.3       1 <0>        -0.1188
     15 H1          5.8973    0.5555    1.8555 H         1 <0>         0.0542
     16 C9          6.1349    2.6833    2.1892 C.3       1 <0>        -0.1008
     17 C10         7.8869    1.1366    1.3603 C.2       1 <0>         0.4715
     18 O3          8.4758    1.0928    0.3062 O.co2     1 <0>        -0.6479
     19 O4          8.5525    0.9415    2.5095 O.co2     1 <0>        -0.7934
     20 H2         -0.7761   -1.9992   -0.0010 H         1 <0>         0.0971
     21 H3         -1.7792   -0.7980   -0.8829 H         1 <0>         0.0934
     22 H4         -1.7614   -0.8076    0.9133 H         1 <0>         0.0937
     23 H5          6.1705    0.7145   -0.6484 H         1 <0>         0.0466
     24 H6          6.3517    2.4941   -0.4847 H         1 <0>         0.0618
     25 H7          6.5005    2.5514    3.2182 H         1 <0>         0.0350
     26 H8          5.0533    2.8830    2.2071 H         1 <0>         0.0377
     27 H9          6.6565    3.5308    1.7205 H         1 <0>         0.0448
@<TRIPOS>BOND
     1    1    2 1
     2    1   20 1
     3    1   21 1
     4    1   22 1
     5    2   11 1
     6    2    3 2
     7    3    4 1
     8    4   10 1
     9    4    5 am
    10    5    6 2
    11    5    7 1
    12    7    8 2
    13    7   13 1
    14    8    9 1
    15    8   12 1
    16    9   10 2
    17   10   11 1
    18   13   14 1
    19   13   23 1
    20   13   24 1
    21   14   15 1
    22   14   16 1
    23   14   17 1
    24   16   25 1
    25   16   26 1
    26   16   27 1
    27   17   18 2
    28   17   19 1
@<TRIPOS>MOLECULE
ZINC12569839
   39    40     0     0     0
SMALL
USER_CHARGES

@<TRIPOS>ATOM
      1 C1          0.3306    1.1791    0.2434 C.3       1 <0>         0.0228
      2 O1         -0.0661   -0.1612   -0.0534 O.3       1 <0>        -0.3093
      3 C2          0.3543   -0.6817   -1.2373 C.ar      1 <0>         0.0987
      4 C3          1.1335    0.0781   -2.0874 C.ar      1 <0>        -0.1686
      5 C4          1.5645   -0.4613   -3.3056 C.ar      1 <0>        -0.0345
      6 C5          1.2027   -1.7682   -3.6546 C.ar      1 <0>        -0.1180
      7 C6          0.4252   -2.5184   -2.8000 C.ar      1 <0>        -0.0990
      8 C7          0.0033   -1.9843   -1.5898 C.ar      1 <0>         0.0828
      9 O2         -0.7584   -2.7314   -0.7487 O.3       1 <0>        -0.4855
     10 C8          2.3929    0.3412   -4.2144 C.2       1 <0>         0.0190
     11 C9          3.0824   -0.2626   -5.2158 C.2       1 <0>        -0.1787
     12 C10         3.8526    0.3376   -6.3234 C.2       1 <0>         0.5397
     13 O3          3.9507    1.5437   -6.4539 O.2       1 <0>        -0.4746
     14 N1          4.4309   -0.5016   -7.1660 N.am      1 <0>        -0.4777
     15 C11         4.3197   -1.8374   -7.0177 C.2       1 <0>         0.2831
     16 S1          4.9883   -3.0748   -7.9938 S.2       1 <0>        -0.2592
     17 S2          3.3141   -2.0031   -5.5516 S.3       1 <0>         0.0041
     18 C12         5.2096    0.0319   -8.2864 C.3       1 <0>         0.0386
     19 H1          5.1936    1.1213   -8.2539 H         1 <0>         0.1021
     20 C13         6.6546   -0.4602   -8.1833 C.3       1 <0>        -0.1007
     21 C14         7.3032    0.1222   -6.9259 C.3       1 <0>        -0.1776
     22 C15         8.7265   -0.3625   -6.8243 C.2       1 <0>         0.4948
     23 O4          9.1801   -1.1050   -7.6785 O.co2     1 <0>        -0.6896
     24 O5          9.4245   -0.0122   -5.8880 O.co2     1 <0>        -0.7192
     25 C16         4.6095   -0.4408   -9.5854 C.2       1 <0>         0.5102
     26 O6          3.6227   -1.1569   -9.5762 O.co2     1 <0>        -0.6797
     27 O7          5.1106   -0.1071  -10.6456 O.co2     1 <0>        -0.6782
     28 H2          1.4187    1.2392    0.2670 H         1 <0>         0.0582
     29 H3         -0.0538    1.8503   -0.5246 H         1 <0>         0.0566
     30 H4         -0.0705    1.4702    1.2143 H         1 <0>         0.0991
     31 H5          1.4094    1.0857   -1.8135 H         1 <0>         0.1400
     32 H6          1.5329   -2.1878   -4.5934 H         1 <0>         0.1471
     33 H7          0.1467   -3.5263   -3.0702 H         1 <0>         0.1432
     34 H8         -1.7099   -2.6444   -0.8978 H         1 <0>         0.3847
     35 H9          2.4535    1.4118   -4.0862 H         1 <0>         0.1577
     36 H10         6.6646   -1.5487   -8.1264 H         1 <0>         0.0930
     37 H11         7.2120   -0.1373   -9.0625 H         1 <0>         0.0867
     38 H12         7.2933    1.2106   -6.9828 H         1 <0>         0.0509
     39 H13         6.7458   -0.2008   -6.0467 H         1 <0>         0.0369
@<TRIPOS>BOND
     1    1    2 1
     2    1   28 1
     3    1   29 1
     4    1   30 1
     5    2    3 1
     6    3    8 ar
     7    3    4 ar
     8    4    5 ar
     9    4   31 1
    10    5    6 ar
    11    5   10 1
    12    6    7 ar
    13    6   32 1
    14    7    8 ar
    15    7   33 1
    16    8    9 1
    17    9   34 1
    18   10   11 2
    19   10   35 1
    20   11   17 1
    21   11   12 1
    22   12   13 2
    23   12   14 am
    24   14   15 1
    25   14   18 1
    26   15   16 2
    27   15   17 1
    28   18   19 1
    29   18   20 1
    30   18   25 1
    31   20   21 1
    32   20   36 1
    33   20   37 1
    34   21   22 1
    35   21   38 1
    36   21   39 1
    37   22   23 2
    38   22   24 1
    39   25   26 2
    40   25   27 1
@<TRIPOS>MOLECULE
ZINC19511115
   26    27     0     0     0
SMALL
USER_CHARGES

@<TRIPOS>ATOM
      1 C1         -0.0178    1.4608    0.0101 C.3       1 <0>         0.0972
      2 N1          0.0021   -0.0041    0.0020 N.am      1 <0>        -0.5000
      3 C2         -1.1867   -0.7123    0.0038 C.2       1 <0>         0.2237
      4 C3         -1.1414   -2.1253   -0.0046 C.2       1 <0>        -0.1633
      5 C4          0.0979   -2.7598   -0.0148 C.2       1 <0>         0.5477
      6 O1          0.1741   -4.1042   -0.0234 O.3       1 <0>        -0.6125
      7 N2          1.2346   -2.0044   -0.0164 N.am      1 <0>        -0.5399
      8 C5          1.1774   -0.6617   -0.0127 C.2       1 <0>         0.7052
      9 O2          2.2131   -0.0243   -0.0188 O.2       1 <0>        -0.5863
     10 C6          2.5401   -2.6689   -0.0266 C.3       1 <0>         0.0928
     11 N3         -2.4311   -2.5494   -0.0003 N.2       1 <0>        -0.4664
     12 C7         -3.2082   -1.4833    0.0100 C.2       1 <0>         0.1458
     13 N4         -2.4647   -0.3740    0.0125 N.2       1 <0>        -0.5233
     14 S1         -4.9698   -1.5181    0.0196 S.3       1 <0>        -0.0089
     15 C8         -5.3739   -3.2865    0.0127 C.3       1 <0>        -0.1546
     16 C9         -6.8709   -3.4597    0.0202 C.2       1 <0>         0.5153
     17 O3         -7.5978   -2.4809    0.0292 O.co2     1 <0>        -0.6812
     18 O4         -7.3551   -4.5787    0.0171 O.co2     1 <0>        -0.6972
     19 H1          1.0048    1.8381    0.0023 H         1 <0>         0.0860
     20 H2         -0.5450    1.8219   -0.8730 H         1 <0>         0.0664
     21 H3         -0.5280    1.8123    0.9069 H         1 <0>         0.0665
     22 H4          2.3977   -3.7496   -0.0318 H         1 <0>         0.0982
     23 H5          3.0925   -2.3710   -0.9178 H         1 <0>         0.0663
     24 H6          3.1015   -2.3807    0.8621 H         1 <0>         0.0662
     25 H7         -4.9589   -3.7506   -0.8820 H         1 <0>         0.0781
     26 H8         -4.9490   -3.7597    0.8980 H         1 <0>         0.0781
@<TRIPOS>BOND
     1    1    2 1
     2    1   19 1
     3    1   20 1
     4    1   21 1
     5    2    8 am
     6    2    3 1
     7    3   13 2
     8    3    4 1
     9    4    5 2
    10    4   11 1
    11    5    6 1
    12    5    7 1
    13    7    8 am
    14    7   10 1
    15    8    9 2
    16   10   22 1
    17   10   23 1
    18   10   24 1
    19   11   12 2
    20   12   13 1
    21   12   14 1
    22   14   15 1
    23   15   16 1
    24   15   25 1
    25   15   26 1
    26   16   17 2
    27   16   18 1
@<TRIPOS>MOLECULE
ZINC16899505
   30    31     0     0     0
SMALL
USER_CHARGES

@<TRIPOS>ATOM
      1 C1          0.8038    0.0346    1.1486 C.ar      1 <0>        -0.0778
      2 C2          1.9847    0.7417    1.1363 C.ar      1 <0>        -0.1159
      3 C3          2.3808    1.4180   -0.0131 C.ar      1 <0>         0.0944
      4 C4          1.5860    1.3828   -1.1542 C.ar      1 <0>        -0.1129
      5 C5          0.4034    0.6785   -1.1502 C.ar      1 <0>        -0.0763
      6 C6          0.0016   -0.0033    0.0032 C.ar      1 <0>        -0.1230
      7 C7         -1.2626   -0.7591    0.0117 C.2       1 <0>         0.5221
      8 O1         -1.6123   -1.3547    1.0213 O.co2     1 <0>        -0.6876
      9 O2         -1.9628   -0.7911   -0.9908 O.co2     1 <0>        -0.6862
     10 N1          3.5799    2.1348   -0.0211 N.am      1 <0>        -0.5183
     11 C8          3.6252    3.4701   -0.1073 C.2       1 <0>         0.5310
     12 O3          2.6619    4.2016   -0.1862 O.2       1 <0>        -0.4764
     13 C9          5.0694    3.9213   -0.0900 C.3       1 <0>        -0.1251
     14 C10         5.8592    2.6014    0.0223 C.3       1 <0>        -0.1385
     15 H1          6.4447    2.5817    0.9415 H         1 <0>         0.1307
     16 C11         4.7781    1.5435    0.0624 C.2       1 <0>         0.5325
     17 O4          4.9670    0.3495    0.1529 O.2       1 <0>        -0.4587
     18 S1          6.9337    2.3755   -1.4216 S.3       1 <0>        -0.1377
     19 C12         7.8756    0.8737   -1.0371 C.3       1 <0>        -0.1591
     20 C13         8.8198    0.5688   -2.1714 C.2       1 <0>         0.5139
     21 O5          8.8542    1.2971   -3.1485 O.co2     1 <0>        -0.6751
     22 O6          9.5494   -0.4063   -2.1118 O.co2     1 <0>        -0.6868
     23 H2          0.4992   -0.4938    2.0399 H         1 <0>         0.1336
     24 H3          2.6044    0.7718    2.0202 H         1 <0>         0.1167
     25 H4          1.8971    1.9092   -2.0445 H         1 <0>         0.1198
     26 H5         -0.2134    0.6523   -2.0364 H         1 <0>         0.1345
     27 H6          5.3201    4.4409   -1.0148 H         1 <0>         0.1295
     28 H7          5.2619    4.5582    0.7734 H         1 <0>         0.1268
     29 H8          8.4458    1.0270   -0.1209 H         1 <0>         0.0785
     30 H9          7.1884    0.0385   -0.9019 H         1 <0>         0.0914
@<TRIPOS>BOND
     1    1    6 ar
     2    1    2 ar
     3    1   23 1
     4    2    3 ar
     5    2   24 1
     6    3    4 ar
     7    3   10 1
     8    4    5 ar
     9    4   25 1
    10    5    6 ar
    11    5   26 1
    12    6    7 1
    13    7    8 2
    14    7    9 1
    15   10   16 am
    16   10   11 am
    17   11   12 2
    18   11   13 1
    19   13   14 1
    20   13   27 1
    21   13   28 1
    22   14   15 1
    23   14   16 1
    24   14   18 1
    25   16   17 2
    26   18   19 1
    27   19   20 1
    28   19   29 1
    29   19   30 1
    30   20   21 2
    31   20   22 1
@<TRIPOS>MOLECULE
ZINC34677899
   38    39     0     0     0
SMALL
USER_CHARGES

@<TRIPOS>ATOM
      1 C1         -0.0191    1.5550    0.0106 C.3       1 <0>        -0.1194
      2 C2          1.4710    1.9661   -0.0014 C.3       1 <0>        -0.1240
      3 C3          2.2521    0.6167   -0.0161 C.3       1 <0>        -0.0774
      4 H1          3.2914    0.6642    0.3090 H         1 <0>         0.1048
      5 C4          1.2961   -0.2813    0.8458 C.3       1 <0>        -0.1213
      6 C5          0.0021   -0.0041    0.0020 C.3       1 <0>        -0.1065
      7 H2         -0.9095   -0.4948    0.3429 H         1 <0>         0.0967
      8 C6          0.5032   -0.3798   -1.4259 C.3       1 <0>        -0.1070
      9 C7          2.0106    0.0414   -1.4451 C.3       1 <0>        -0.1121
     10 H3          2.1986    0.8057   -2.1992 H         1 <0>         0.0966
     11 C8          2.8884   -1.1602   -1.6830 C.2       1 <0>         0.5158
     12 O1          3.6428   -1.5418   -0.8133 O.2       1 <0>        -0.5452
     13 N1          2.8351   -1.8109   -2.8621 N.am      1 <0>        -0.6971
     14 C9          3.6885   -2.9790   -3.0933 C.3       1 <0>         0.0763
     15 H4          3.7987   -3.5381   -2.1641 H         1 <0>         0.0821
     16 C10         3.0488   -3.8757   -4.1552 C.3       1 <0>        -0.0942
     17 C11         1.7297   -4.4374   -3.6211 C.3       1 <0>        -0.1389
     18 C12         1.0996   -5.3206   -4.6670 C.2       1 <0>         0.5148
     19 O2          1.6513   -5.4847   -5.7346 O.2       1 <0>        -0.5388
     20 N2         -0.0770   -5.9282   -4.4162 N.am      1 <0>        -0.8627
     21 C13         5.0439   -2.5245   -3.5698 C.2       1 <0>         0.4925
     22 O3          6.0343   -3.1879   -3.3135 O.co2     1 <0>        -0.6944
     23 O4          5.1503   -1.4934   -4.2117 O.co2     1 <0>        -0.6908
     24 H5         -0.5076    1.9235    0.9126 H         1 <0>         0.0597
     25 H6         -0.5247    1.9331   -0.8779 H         1 <0>         0.0623
     26 H7          1.6979    2.5463   -0.8959 H         1 <0>         0.0643
     27 H8          1.7150    2.5367    0.8947 H         1 <0>         0.0631
     28 H9          1.5857   -1.3317    0.8170 H         1 <0>         0.0736
     29 H10         1.2034    0.0845    1.8684 H         1 <0>         0.0665
     30 H11         0.4035   -1.4522   -1.5936 H         1 <0>         0.0663
     31 H12        -0.0507    0.1770   -2.1817 H         1 <0>         0.0696
     32 H13         2.2318   -1.5057   -3.5576 H         1 <0>         0.3904
     33 H14         2.8571   -3.2924   -5.0558 H         1 <0>         0.0723
     34 H15         3.7245   -4.6977   -4.3916 H         1 <0>         0.0830
     35 H16         1.9213   -5.0208   -2.7205 H         1 <0>         0.0930
     36 H17         1.0540   -3.6155   -3.3846 H         1 <0>         0.0904
     37 H18        -0.5182   -5.7971   -3.5623 H         1 <0>         0.3994
     38 H19        -0.4825   -6.4967   -5.0894 H         1 <0>         0.3965
@<TRIPOS>BOND
     1    1    6 1
     2    1    2 1
     3    1   24 1
     4    1   25 1
     5    2    3 1
     6    2   26 1
     7    2   27 1
     8    3    4 1
     9    3    9 1
    10    3    5 1
    11    5    6 1
    12    5   28 1
    13    5   29 1
    14    6    7 1
    15    6    8 1
    16    8    9 1
    17    8   30 1
    18    8   31 1
    19    9   10 1
    20    9   11 1
    21   11   12 2
    22   11   13 am
    23   13   14 1
    24   13   32 1
    25   14   15 1
    26   14   16 1
    27   14   21 1
    28   16   17 1
    29   16   33 1
    30   16   34 1
    31   17   18 1
    32   17   35 1
    33   17   36 1
    34   18   19 2
    35   18   20 am
    36   20   37 1
    37   20   38 1
    38   21   22 2
    39   21   23 1
@<TRIPOS>MOLECULE
ZINC37588728
   36    36     0     0     0
SMALL
USER_CHARGES

@<TRIPOS>ATOM
      1 C1          0.3757    1.1066    0.5399 C.3       1 <0>        -0.1467
      2 C2         -0.1624   -0.3171    0.3832 C.3       1 <0>        -0.0969
      3 C3          0.0958   -1.1043    1.6695 C.3       1 <0>        -0.1517
      4 C4         -1.6668   -0.2665    0.1095 C.3       1 <0>         0.1511
      5 H1         -2.0435   -1.2786   -0.0380 H         1 <0>         0.1062
      6 C5         -2.3700    0.3651    1.2833 C.2       1 <0>         0.5219
      7 O1         -2.5004    1.5697    1.3355 O.2       1 <0>        -0.5403
      8 N1         -2.8539   -0.4088    2.2749 N.am      1 <0>        -0.5419
      9 C6         -3.4505    0.2093    3.4617 C.3       1 <0>         0.0435
     10 C7         -4.9274    0.4069    3.2364 C.2       1 <0>         0.4856
     11 O2         -5.4347    0.0632    2.1823 O.co2     1 <0>        -0.6804
     12 O3         -5.6151    0.9104    4.1083 O.co2     1 <0>        -0.7030
     13 C8         -2.7834   -1.8680    2.1662 C.3       1 <0>         0.0780
     14 C9         -3.6256   -2.6908    3.1433 C.3       1 <0>        -0.1752
     15 C10        -2.1056   -2.6295    3.3070 C.3       1 <0>        -0.1978
     16 N2         -1.9175    0.5283   -1.0953 N.am      1 <0>        -0.7236
     17 C11        -1.8468   -0.0497   -2.3108 C.2       1 <0>         0.7099
     18 O4         -1.5748   -1.2308   -2.4073 O.2       1 <0>        -0.5990
     19 N3         -2.0774    0.6815   -3.4192 N.am      1 <0>        -0.8677
     20 H2          1.4475    1.0705    0.7349 H         1 <0>         0.0520
     21 H3          0.1918    1.6674   -0.3765 H         1 <0>         0.0533
     22 H4         -0.1289    1.5960    1.3729 H         1 <0>         0.0639
     23 H5          0.3422   -0.8066   -0.4498 H         1 <0>         0.0833
     24 H6         -0.3770   -0.5942    2.5087 H         1 <0>         0.0615
     25 H7         -0.3212   -2.1067    1.5719 H         1 <0>         0.0638
     26 H8          1.1695   -1.1729    1.8442 H         1 <0>         0.0568
     27 H9         -3.2981   -0.4390    4.3245 H         1 <0>         0.0732
     28 H10        -2.9786    1.1746    3.6447 H         1 <0>         0.0808
     29 H11        -2.6585   -2.2587    1.1563 H         1 <0>         0.1266
     30 H12        -4.2321   -2.1464    3.8670 H         1 <0>         0.1035
     31 H13        -4.0550   -3.6230    2.7762 H         1 <0>         0.0992
     32 H14        -1.5351   -3.5214    3.0477 H         1 <0>         0.0993
     33 H15        -1.7121   -2.0448    4.1385 H         1 <0>         0.0946
     34 H16        -2.1345    1.4706   -1.0183 H         1 <0>         0.4057
     35 H17        -2.2943    1.6238   -3.3422 H         1 <0>         0.3975
     36 H18        -2.0265    0.2655   -4.2940 H         1 <0>         0.4131
@<TRIPOS>BOND
     1    1    2 1
     2    1   20 1
     3    1   21 1
     4    1   22 1
     5    2    3 1
     6    2    4 1
     7    2   23 1
     8    3   24 1
     9    3   25 1
    10    3   26 1
    11    4    5 1
    12    4    6 1
    13    4   16 1
    14    6    7 2
    15    6    8 am
    16    8    9 1
    17    8   13 1
    18    9   10 1
    19    9   27 1
    20    9   28 1
    21   10   11 2
    22   10   12 1
    23   13   15 1
    24   13   14 1
    25   13   29 1
    26   14   15 1
    27   14   30 1
    28   14   31 1
    29   15   32 1
    30   15   33 1
    31   16   17 am
    32   16   34 1
    33   17   18 2
    34   17   19 am
    35   19   35 1
    36   19   36 1
@<TRIPOS>MOLECULE
ZINC40547700
   37    38     0     0     0
SMALL
USER_CHARGES

@<TRIPOS>ATOM
      1 C1         -0.0157    1.3042    0.0181 C.2       1 <0>         0.0244
      2 C2          1.3092    1.7635    0.0042 C.2       1 <0>        -0.0066
      3 C3          2.1253    0.6791   -0.0081 C.2       1 <0>         0.0063
      4 N1          1.3371   -0.4273   -0.0021 N.pl3     1 <0>        -0.3217
      5 N2          0.0020   -0.0041    0.0143 N.2       1 <0>        -0.2417
      6 C4          1.8012   -1.8168   -0.0112 C.3       1 <0>         0.0596
      7 C5          1.2008   -2.5546    1.1576 C.2       1 <0>         0.4868
      8 O1          0.4543   -1.9737    1.9269 O.co2     1 <0>        -0.6620
      9 O2          1.4614   -3.7326    1.3339 O.co2     1 <0>        -0.6953
     10 N3          1.7200    3.1107    0.0028 N.am      1 <0>        -0.6501
     11 C6          0.8001    4.0957    0.0161 C.2       1 <0>         0.7107
     12 O3         -0.3824    3.8245   -0.0663 O.2       1 <0>        -0.5747
     13 N4          1.1909    5.3813    0.1206 N.am      1 <0>        -0.6292
     14 C7          2.6171    5.7339    0.1038 C.3       1 <0>         0.1087
     15 C8          2.9310    6.5778    1.3432 C.3       1 <0>        -0.1366
     16 C9          1.9865    7.7811    1.3887 C.3       1 <0>        -0.0984
     17 C10         0.5398    7.2927    1.4906 C.3       1 <0>        -0.1276
     18 H1          0.4244    6.6812    2.3856 H         1 <0>         0.1052
     19 C11         0.1986    6.4574    0.2473 C.3       1 <0>         0.1435
     20 C12        -0.3871    8.4784    1.5687 C.2       1 <0>         0.5271
     21 O4          0.0645    9.6037    1.5452 O.2       1 <0>        -0.5430
     22 N5         -1.7179    8.2882    1.6647 N.am      1 <0>        -0.8540
     23 H2         -0.8997    1.9244    0.0339 H         1 <0>         0.1964
     24 H3          3.2052    0.6932   -0.0204 H         1 <0>         0.1659
     25 H4          1.4938   -2.2965   -0.9404 H         1 <0>         0.0838
     26 H5          2.8883   -1.8373    0.0659 H         1 <0>         0.0920
     27 H6          2.6649    3.3297   -0.0077 H         1 <0>         0.3997
     28 H7          3.2185    4.8249    0.1188 H         1 <0>         0.0796
     29 H8          2.8411    6.3079   -0.7953 H         1 <0>         0.0729
     30 H9          2.7932    5.9731    2.2395 H         1 <0>         0.0713
     31 H10         3.9625    6.9266    1.2942 H         1 <0>         0.0815
     32 H11         2.2240    8.3966    2.2564 H         1 <0>         0.0742
     33 H12         2.1072    8.3720    0.4807 H         1 <0>         0.0728
     34 H13         0.2294    7.0892   -0.6404 H         1 <0>         0.0710
     35 H14        -0.7963    6.0260    0.3569 H         1 <0>         0.1004
     36 H15        -2.0791    7.3882    1.6835 H         1 <0>         0.4054
     37 H16        -2.3145    9.0514    1.7150 H         1 <0>         0.4017
@<TRIPOS>BOND
     1    1    5 2
     2    1    2 1
     3    1   23 1
     4    2    3 2
     5    2   10 1
     6    3    4 1
     7    3   24 1
     8    4    5 1
     9    4    6 1
    10    6    7 1
    11    6   25 1
    12    6   26 1
    13    7    8 2
    14    7    9 1
    15   10   11 am
    16   10   27 1
    17   11   12 2
    18   11   13 am
    19   13   19 1
    20   13   14 1
    21   14   15 1
    22   14   28 1
    23   14   29 1
    24   15   16 1
    25   15   30 1
    26   15   31 1
    27   16   17 1
    28   16   32 1
    29   16   33 1
    30   17   18 1
    31   17   19 1
    32   17   20 1
    33   19   34 1
    34   19   35 1
    35   20   21 2
    36   20   22 am
    37   22   36 1
    38   22   37 1
@<TRIPOS>MOLECULE
ZINC33629988
   37    39     0     0     0
SMALL
USER_CHARGES

@<TRIPOS>ATOM
      1 C1          1.1599   -0.8274   -0.2679 C.3       1 <0>         0.0265
      2 O1          0.0109   -0.0209   -0.0008 O.3       1 <0>        -0.3105
      3 C2         -1.1955   -0.6486    0.0079 C.ar      1 <0>         0.1022
      4 C3         -1.2707   -2.0117   -0.2295 C.ar      1 <0>        -0.1942
      5 C4         -2.4978   -2.6483   -0.2198 C.ar      1 <0>        -0.0498
      6 C5         -3.6519   -1.9279    0.0261 C.ar      1 <0>        -0.0876
      7 C6         -3.5839   -0.5677    0.2633 C.ar      1 <0>        -0.0784
      8 C7         -2.3565    0.0755    0.2611 C.ar      1 <0>         0.0699
      9 O2         -2.2873    1.4125    0.5002 O.3       1 <0>        -0.4875
     10 C8         -4.9869   -2.6268    0.0350 C.3       1 <0>         0.0974
     11 H1         -4.8678   -3.6750    0.3092 H         1 <0>         0.0941
     12 C9         -5.6652   -2.5023   -1.3211 C.3       1 <0>        -0.2273
     13 H2         -6.3514   -3.3255   -1.5199 H         1 <0>         0.1111
     14 C10        -6.3897   -1.1241   -1.0780 C.3       1 <0>        -0.0001
     15 H3         -5.5736   -0.4580   -0.7980 H         1 <0>         0.0626
     16 C11        -6.6682   -0.6942   -2.4337 C.2       1 <0>         0.5072
     17 O3         -7.6866    0.0791   -2.8397 O.3       1 <0>        -0.6235
     18 N1         -5.7111   -1.2199   -3.1956 N.2       1 <0>        -0.6859
     19 C12        -4.8912   -2.0971   -2.5368 C.2       1 <0>         0.5287
     20 O4         -3.7793   -2.4641   -2.8579 O.2       1 <0>        -0.5137
     21 O5         -7.0165   -1.3172    0.1232 O.3       1 <0>        -0.1825
     22 N2         -5.9333   -1.9421    0.9710 N.3       1 <0>        -0.3116
     23 C13        -6.5062   -2.8952    1.9309 C.3       1 <0>         0.0060
     24 C14        -7.3554   -2.1527    2.9301 C.2       1 <0>         0.5185
     25 O6         -7.4719   -0.9481    2.8505 O.2       1 <0>        -0.5018
     26 N3         -7.9853   -2.8272    3.9123 N.am      1 <0>        -0.8633
     27 H4          2.0541   -0.2045   -0.2454 H         1 <0>         0.0965
     28 H5          1.2408   -1.6068    0.4897 H         1 <0>         0.0527
     29 H6          1.0612   -1.2859   -1.2518 H         1 <0>         0.0553
     30 H7         -0.3707   -2.5766   -0.4226 H         1 <0>         0.1301
     31 H8         -2.5550   -3.7108   -0.4050 H         1 <0>         0.1254
     32 H9         -4.4870   -0.0071    0.4547 H         1 <0>         0.1448
     33 H10        -2.3565    1.9584   -0.2950 H         1 <0>         0.3849
     34 H11        -7.1217   -3.6208    1.3991 H         1 <0>         0.0832
     35 H12        -5.7016   -3.4139    2.4521 H         1 <0>         0.1223
     36 H13        -7.8922   -3.7906    3.9760 H         1 <0>         0.3974
     37 H14        -8.5319   -2.3492    4.5555 H         1 <0>         0.4012
@<TRIPOS>BOND
     1    1    2 1
     2    1   27 1
     3    1   28 1
     4    1   29 1
     5    2    3 1
     6    3    8 ar
     7    3    4 ar
     8    4    5 ar
     9    4   30 1
    10    5    6 ar
    11    5   31 1
    12    6    7 ar
    13    6   10 1
    14    7    8 ar
    15    7   32 1
    16    8    9 1
    17    9   33 1
    18   10   11 1
    19   10   22 1
    20   10   12 1
    21   12   13 1
    22   12   19 1
    23   12   14 1
    24   14   15 1
    25   14   16 1
    26   14   21 1
    27   16   17 1
    28   16   18 2
    29   18   19 1
    30   19   20 2
    31   21   22 1
    32   22   23 1
    33   23   24 1
    34   23   34 1
    35   23   35 1
    36   24   25 2
    37   24   26 am
    38   26   36 1
    39   26   37 1
@<TRIPOS>MOLECULE
ZINC54432296
   34    35     0     0     0
SMALL
USER_CHARGES

@<TRIPOS>ATOM
      1 C1         -0.0187    1.5258    0.0104 C.3       1 <0>        -0.1442
      2 C2          0.0021   -0.0041    0.0020 C.3       1 <0>        -0.0954
      3 H1         -1.0205   -0.3814    0.0098 H         1 <0>         0.0638
      4 C3          0.7182   -0.4975   -1.2568 C.3       1 <0>        -0.1098
      5 C4          0.7390   -2.0273   -1.2652 C.3       1 <0>        -0.1164
      6 C5          1.4790   -2.5342   -0.0257 C.3       1 <0>        -0.1132
      7 C6          0.7628   -2.0407    1.2331 C.3       1 <0>         0.1081
      8 C7          0.7421   -0.5109    1.2415 C.3       1 <0>        -0.0992
      9 C8          1.4917   -2.5400    2.4540 C.2       1 <0>         0.5025
     10 O1          2.6566   -2.2306    2.6375 O.co2     1 <0>        -0.6925
     11 O2          0.9164   -3.2532    3.2583 O.co2     1 <0>        -0.6754
     12 N1         -0.6116   -2.5478    1.2435 N.am      1 <0>        -0.6718
     13 C9         -0.8399   -3.8761    1.2386 C.2       1 <0>         0.5933
     14 O3          0.0943   -4.6531    1.2255 O.2       1 <0>        -0.4962
     15 C10        -2.2295   -4.3888    1.2491 C.2       1 <0>         0.0464
     16 C11        -2.6245   -5.8019    1.2511 C.2       1 <0>         0.3670
     17 N2         -3.9283   -5.8632    1.2613 N.2       1 <0>        -0.3699
     18 O4         -4.4271   -4.5374    1.2662 O.3       1 <0>         0.0234
     19 N3         -3.3150   -3.6599    1.2638 N.2       1 <0>        -0.2386
     20 N4         -1.7598   -6.8877    1.2436 N.pl3     1 <0>        -0.8007
     21 H2          1.0039    1.9031    0.0027 H         1 <0>         0.0546
     22 H3         -0.5459    1.8868   -0.8726 H         1 <0>         0.0501
     23 H4         -0.5289    1.8773    0.9072 H         1 <0>         0.0530
     24 H5          0.1910   -0.1364   -2.1398 H         1 <0>         0.0546
     25 H6          1.7408   -0.1202   -1.2645 H         1 <0>         0.0624
     26 H7         -0.2836   -2.4046   -1.2575 H         1 <0>         0.0529
     27 H8          1.2492   -2.3788   -2.1620 H         1 <0>         0.0558
     28 H9          1.4937   -3.6240   -0.0317 H         1 <0>         0.0764
     29 H10         2.5015   -2.1569   -0.0334 H         1 <0>         0.0743
     30 H11         1.7647   -0.1336    1.2338 H         1 <0>         0.0848
     31 H12         0.2319   -0.1594    2.1383 H         1 <0>         0.0610
     32 H13        -1.3573   -1.9276    1.2540 H         1 <0>         0.3938
     33 H14        -0.8005   -6.7437    1.2362 H         1 <0>         0.4328
     34 H15        -2.1147   -7.7904    1.2457 H         1 <0>         0.4126
@<TRIPOS>BOND
     1    1    2 1
     2    1   21 1
     3    1   22 1
     4    1   23 1
     5    2    3 1
     6    2    8 1
     7    2    4 1
     8    4    5 1
     9    4   24 1
    10    4   25 1
    11    5    6 1
    12    5   26 1
    13    5   27 1
    14    6    7 1
    15    6   28 1
    16    6   29 1
    17    7    8 1
    18    7    9 1
    19    7   12 1
    20    8   30 1
    21    8   31 1
    22    9   10 2
    23    9   11 1
    24   12   13 am
    25   12   32 1
    26   13   14 2
    27   13   15 1
    28   15   19 2
    29   15   16 1
    30   16   17 2
    31   16   20 1
    32   17   18 1
    33   18   19 1
    34   20   33 1
    35   20   34 1
@<TRIPOS>MOLECULE
ZINC05106283
   32    33     0     0     0
SMALL
USER_CHARGES
2-[(6-chlorobenzo[1,3]dioxol-5-yl)methoxyimino]pentanedioic acid
@<TRIPOS>ATOM
      1 C1         -0.0126    1.0758    0.0080 C.ar      1 <0>        -0.0588
      2 C2          1.1757    1.7830    0.0004 C.ar      1 <0>        -0.0478
      3 C3          1.1606    3.1660    0.0075 C.ar      1 <0>        -0.0295
      4 C4         -0.0438    3.8471    0.0227 C.ar      1 <0>        -0.0981
      5 C5         -1.2373    3.1444    0.0303 C.ar      1 <0>         0.0278
      6 C6         -1.2215    1.7514    0.0174 C.ar      1 <0>         0.0410
      7 O1         -2.5101    1.3007    0.0325 O.3       1 <0>        -0.2996
      8 C7         -3.3066    2.4223    0.4576 C.3       1 <0>         0.2119
      9 O2         -2.5355    3.5658    0.0442 O.3       1 <0>        -0.3111
     10 Cl1         2.6553    4.0489   -0.0032 Cl        1 <0>        -0.0578
     11 C8          2.4897    1.0453   -0.0161 C.3       1 <0>         0.1041
     12 O3          2.2455   -0.3627   -0.0213 O.3       1 <0>        -0.1911
     13 N1          3.4216   -1.1511   -0.0368 N.2       1 <0>        -0.3428
     14 C9          3.3350   -2.4413   -0.0429 C.2       1 <0>         0.1138
     15 C10         4.5867   -3.2804   -0.0594 C.3       1 <0>        -0.0270
     16 C11         4.6833   -4.0778    1.2429 C.3       1 <0>        -0.1484
     17 C12         5.9349   -4.9169    1.2264 C.2       1 <0>         0.4699
     18 O4          6.6739   -4.8809    0.2711 O.co2     1 <0>        -0.6476
     19 C13         2.0114   -3.0915   -0.0337 C.2       1 <0>         0.4636
     20 O5          1.9301   -4.3035   -0.0395 O.co2     1 <0>        -0.6172
     21 H1          0.0021   -0.0041    0.0020 H         1 <0>         0.1828
     22 H2         -0.0532    4.9271    0.0282 H         1 <0>         0.1419
     23 H3         -3.4307    2.4153    1.5405 H         1 <0>         0.0821
     24 H4         -4.2763    2.4140   -0.0400 H         1 <0>         0.1287
     25 H5          3.0496    1.3203   -0.9100 H         1 <0>         0.0679
     26 H6          3.0665    1.3107    0.8699 H         1 <0>         0.0681
     27 H7          4.5522   -3.9678   -0.9046 H         1 <0>         0.0857
     28 H8          5.4577   -2.6319   -0.1538 H         1 <0>         0.0674
     29 H9          4.7178   -3.3904    2.0881 H         1 <0>         0.0566
     30 H10         3.8123   -4.7263    1.3373 H         1 <0>         0.0865
     31 O6          6.2289   -5.7043    2.2730 O.co2     1 <0>        -0.7860
     32 O7          0.8922   -2.3412   -0.0190 O.co2     1 <0>        -0.7371
@<TRIPOS>BOND
     1    1    6 ar
     2    1    2 ar
     3    1   21 1
     4    2    3 ar
     5    2   11 1
     6    3    4 ar
     7    3   10 1
     8    4    5 ar
     9    4   22 1
    10    5    9 1
    11    5    6 ar
    12    6    7 1
    13    7    8 1
    14    8    9 1
    15    8   23 1
    16    8   24 1
    17   11   12 1
    18   11   25 1
    19   11   26 1
    20   12   13 1
    21   13   14 2
    22   14   15 1
    23   14   19 1
    24   15   16 1
    25   15   27 1
    26   15   28 1
    27   16   17 1
    28   16   29 1
    29   16   30 1
    30   17   18 2
    31   17   31 1
    32   19   20 2
    33   19   32 1
@<TRIPOS>MOLECULE
ZINC20113203
   45    46     0     0     0
SMALL
USER_CHARGES
4-[(2S)-3-acetyl-2-(3,4-dimethoxyphenyl)-4-hydroxy-5-oxo-2H-pyrrol-1-yl]butanoic acid
@<TRIPOS>ATOM
      1 C1          0.2641    6.3652    4.4882 C.3       1 <0>        -0.2033
      2 C2          0.8640    7.3716    3.5404 C.2       1 <0>         0.4180
      3 O1          1.9205    7.9047    3.8103 O.2       1 <0>        -0.5226
      4 C3          0.1955    7.6952    2.3359 C.2       1 <0>        -0.4879
      5 C4          0.6098    8.5757    1.3897 C.2       1 <0>         0.2903
      6 C5         -0.3840    8.6132    0.2941 C.2       1 <0>         0.5042
      7 O2         -0.2993    9.3051   -0.7007 O.2       1 <0>        -0.5346
      8 N1         -1.3949    7.7671    0.5625 N.am      1 <0>        -0.6020
      9 C6         -1.1183    7.1262    1.8533 C.3       1 <0>         0.2500
     10 H1         -1.9405    7.3275    2.5558 H         1 <0>         0.0719
     11 C7         -1.0027    5.6341    1.6765 C.ar      1 <0>        -0.0571
     12 C8         -0.3682    5.1187    0.5616 C.ar      1 <0>        -0.0921
     13 C9         -0.2542    3.7507    0.3979 C.ar      1 <0>        -0.1698
     14 C10        -0.7875    2.8927    1.3463 C.ar      1 <0>         0.0817
     15 C11        -1.4266    3.4114    2.4683 C.ar      1 <0>         0.0957
     16 C12        -1.5319    4.7836    2.6293 C.ar      1 <0>        -0.1645
     17 O3         -1.9462    2.5735    3.4049 O.3       1 <0>        -0.3112
     18 C13        -2.5882    3.1765    4.5302 C.3       1 <0>         0.0215
     19 O4         -0.6816    1.5467    1.1837 O.3       1 <0>        -0.3119
     20 C14        -0.0127    1.0858    0.0080 C.3       1 <0>         0.0259
     21 C15        -2.5656    7.5274   -0.2850 C.3       1 <0>         0.1336
     22 C16        -3.6804    8.5030    0.0974 C.3       1 <0>        -0.1138
     23 C17        -4.9031    8.2527   -0.7876 C.3       1 <0>        -0.1528
     24 C18        -6.0011    9.2136   -0.4110 C.2       1 <0>         0.4609
     25 O5         -5.8240   10.0164    0.4745 O.co2     1 <0>        -0.6382
     26 O6         -7.1760    9.1778   -1.0592 O.co2     1 <0>        -0.7865
     27 O7          1.7480    9.3029    1.4407 O.3       1 <0>        -0.6087
     28 H2         -0.6859    5.9942    4.0760 H         1 <0>         0.0742
     29 H3          0.0797    6.8429    5.4617 H         1 <0>         0.0667
     30 H4          0.9606    5.5239    4.6187 H         1 <0>         0.0658
     31 H5          0.0437    5.7863   -0.1808 H         1 <0>         0.1231
     32 H6          0.2466    3.3507   -0.4714 H         1 <0>         0.1290
     33 H7         -2.0272    5.1888    3.4994 H         1 <0>         0.1390
     34 H8         -2.9602    2.3910    5.2044 H         1 <0>         0.0951
     35 H9         -3.4313    3.7927    4.1846 H         1 <0>         0.0566
     36 H10        -1.8672    3.8099    5.0677 H         1 <0>         0.0563
     37 H11         0.0022   -0.0141    0.0020 H         1 <0>         0.0937
     38 H12         1.0193    1.4665    0.0002 H         1 <0>         0.0523
     39 H13        -0.5447    1.4502   -0.8832 H         1 <0>         0.0526
     40 H14        -2.2919    7.6785   -1.3396 H         1 <0>         0.0745
     41 H15        -2.9168    6.4949   -0.1417 H         1 <0>         0.0713
     42 H16        -3.9541    8.3519    1.1520 H         1 <0>         0.0626
     43 H17        -3.3292    9.5355   -0.0460 H         1 <0>         0.0653
     44 H18        -4.6295    8.4038   -1.8423 H         1 <0>         0.0632
     45 H19        -5.2543    7.2202   -0.6442 H         1 <0>         0.0621
@<TRIPOS>BOND
     1    1    2 1
     2    1   28 1
     3    1   29 1
     4    1   30 1
     5    2    3 2
     6    2    4 1
     7    4    9 1
     8    4    5 2
     9    5    6 1
    10    5   27 1
    11    6    7 2
    12    6    8 am
    13    8    9 1
    14    8   21 1
    15    9   10 1
    16    9   11 1
    17   11   16 ar
    18   11   12 ar
    19   12   13 ar
    20   12   31 1
    21   13   14 ar
    22   13   32 1
    23   14   15 ar
    24   14   19 1
    25   15   16 ar
    26   15   17 1
    27   16   33 1
    28   17   18 1
    29   18   34 1
    30   18   35 1
    31   18   36 1
    32   19   20 1
    33   20   37 1
    34   20   38 1
    35   20   39 1
    36   21   22 1
    37   21   40 1
    38   21   41 1
    39   22   23 1
    40   22   42 1
    41   22   43 1
    42   23   24 1
    43   23   44 1
    44   23   45 1
    45   24   25 2
    46   24   26 1
@<TRIPOS>MOLECULE
ZINC37675829
   32    33     0     0     0
SMALL
USER_CHARGES

@<TRIPOS>ATOM
      1 C1         -0.0184    1.5028    0.0103 C.3       1 <0>        -0.0742
      2 C2          0.0021   -0.0041    0.0020 C.2       1 <0>         0.1681
      3 C3          0.0058   -0.7232   -1.1965 C.2       1 <0>        -0.3747
      4 C4          0.0255   -2.1133   -1.0306 C.2       1 <0>         0.2510
      5 S1          0.0362   -2.2889    0.6380 S.3       1 <0>         0.0274
      6 N1          0.0223   -0.6855    1.1103 N.2       1 <0>        -0.5477
      7 N2          0.0340   -3.0946   -1.9984 N.2       1 <0>        -0.9733
      8 S2          0.0578   -4.6910   -1.5587 S.o2      1 <0>         2.6898
      9 O1          1.3096   -4.9194   -0.9261 O.2       1 <0>        -1.0423
     10 O2         -1.1809   -4.9531   -0.9136 O.2       1 <0>        -1.0423
     11 N3          0.0629   -5.5831   -2.9539 N.pl3     1 <0>        -0.9856
     12 C5         -1.1989   -5.9983   -3.5815 C.3       1 <0>         0.1335
     13 C6         -1.1925   -5.5489   -5.0460 C.3       1 <0>        -0.1389
     14 C7          0.0611   -6.0910   -5.7364 C.3       1 <0>        -0.1070
     15 C8          1.3075   -5.5252   -5.0520 C.3       1 <0>        -0.1392
     16 C9          1.3294   -5.9692   -3.5909 C.3       1 <0>         0.1336
     17 C10        -0.0099   -0.0798   -2.5090 C.2       1 <0>         0.5639
     18 O3         -0.0273    1.1420   -2.5919 O.co2     1 <0>        -0.7307
     19 O4         -0.0057   -0.7627   -3.5257 O.co2     1 <0>        -0.6804
     20 H1          1.0042    1.8801    0.0026 H         1 <0>         0.0555
     21 H2         -0.5455    1.8639   -0.8728 H         1 <0>         0.1131
     22 H3         -0.5286    1.8543    0.9071 H         1 <0>         0.0361
     23 H4         -1.2916   -7.0833   -3.5327 H         1 <0>         0.0514
     24 H5         -2.0363   -5.5342   -3.0605 H         1 <0>         0.0843
     25 H6         -2.0799   -5.9337   -5.5486 H         1 <0>         0.0612
     26 H7         -1.1912   -4.4598   -5.0923 H         1 <0>         0.0816
     27 H8          0.0716   -7.1788   -5.6681 H         1 <0>         0.0517
     28 H9          0.0558   -5.7933   -6.7849 H         1 <0>         0.0559
     29 H10         2.1996   -5.8932   -5.5588 H         1 <0>         0.0615
     30 H11         1.2853   -4.4364   -5.0983 H         1 <0>         0.0813
     31 H12         2.1597   -5.4858   -3.0760 H         1 <0>         0.0843
     32 H13         1.4474   -7.0517   -3.5428 H         1 <0>         0.0510
@<TRIPOS>BOND
     1    1    2 1
     2    1   20 1
     3    1   21 1
     4    1   22 1
     5    2    6 2
     6    2    3 1
     7    3    4 2
     8    3   17 1
     9    4    5 1
    10    4    7 1
    11    5    6 1
    12    7    8 1
    13    8    9 2
    14    8   10 2
    15    8   11 1
    16   11   16 1
    17   11   12 1
    18   12   13 1
    19   12   23 1
    20   12   24 1
    21   13   14 1
    22   13   25 1
    23   13   26 1
    24   14   15 1
    25   14   27 1
    26   14   28 1
    27   15   16 1
    28   15   29 1
    29   15   30 1
    30   16   31 1
    31   16   32 1
    32   17   18 2
    33   17   19 1
@<TRIPOS>MOLECULE
ZINC01574514
   20    21     0     0     0
SMALL
USER_CHARGES

@<TRIPOS>ATOM
      1 C1         -0.0178    1.4608    0.0101 C.3       1 <0>         0.1033
      2 N1          0.0021   -0.0041    0.0020 N.pl3     1 <0>        -0.4398
      3 C2         -1.1040   -0.8473    0.0025 C.2       1 <0>        -0.1788
      4 C3         -2.4802   -0.6564    0.0091 C.2       1 <0>         0.5178
      5 O1         -2.9940    0.5953    0.0177 O.3       1 <0>        -0.6833
      6 N2         -3.2925   -1.7164    0.0064 N.2       1 <0>        -0.6320
      7 C4         -2.8237   -2.9450   -0.0024 C.2       1 <0>         0.6263
      8 O2         -3.6909   -3.9784   -0.0047 O.3       1 <0>        -0.6897
      9 N3         -1.4906   -3.2014   -0.0097 N.pl3     1 <0>        -0.5102
     10 C5         -0.5986   -2.1556   -0.0069 C.2       1 <0>         0.3029
     11 N4          0.7284   -2.0685   -0.0125 N.2       1 <0>        -0.5460
     12 C6          1.0970   -0.7927   -0.0131 C.2       1 <0>         0.4345
     13 S1          2.7150   -0.2336   -0.0262 S.2       1 <0>        -0.8070
     14 C7         -1.0057   -4.5838   -0.0204 C.3       1 <0>         0.0898
     15 H1          1.0048    1.8381    0.0023 H         1 <0>         0.0925
     16 H2         -0.5450    1.8219   -0.8730 H         1 <0>         0.0630
     17 H3         -0.5280    1.8123    0.9069 H         1 <0>         0.0629
     18 H4         -1.8552   -5.2668   -0.0210 H         1 <0>         0.0894
     19 H5         -0.4044   -4.7511   -0.9140 H         1 <0>         0.0524
     20 H6         -0.3969   -4.7622    0.8660 H         1 <0>         0.0523
@<TRIPOS>BOND
     1    1    2 1
     2    1   15 1
     3    1   16 1
     4    1   17 1
     5    2   12 1
     6    2    3 1
     7    3   10 1
     8    3    4 2
     9    4    5 1
    10    4    6 1
    11    6    7 2
    12    7    8 1
    13    7    9 1
    14    9   10 1
    15    9   14 1
    16   10   11 2
    17   11   12 1
    18   12   13 2
    19   14   18 1
    20   14   19 1
    21   14   20 1
@<TRIPOS>MOLECULE
ZINC62723160
   21    22     0     0     0
SMALL
USER_CHARGES

@<TRIPOS>ATOM
      1 C1         -0.0167    1.3769    0.0096 C.ar      1 <0>        -0.0198
      2 C2          1.1693    2.0972    0.0022 C.ar      1 <0>        -0.1141
      3 C3          2.3824    1.4245   -0.0128 C.ar      1 <0>        -0.0733
      4 C4          2.4017    0.0172   -0.0200 C.ar      1 <0>        -0.1569
      5 C5          1.2070   -0.6907   -0.0127 C.ar      1 <0>         0.0120
      6 C6          0.0021   -0.0041    0.0020 C.ar      1 <0>        -0.6620
      7 S1         -1.5153   -0.8998    0.0118 S.o2      1 <0>         2.7012
      8 O1         -1.2596   -2.1563    0.6987 O.2       1 <0>        -1.0620
      9 O2         -2.4850   -0.0801    0.7216 O.2       1 <0>        -1.0662
     10 O3         -1.8924   -1.1070   -1.3777 O.3       1 <0>        -1.0641
     11 C7          3.7059   -0.6808   -0.0342 C.2       1 <0>         0.3924
     12 O4          3.7662   -1.8677   -0.2833 O.2       1 <0>        -0.4357
     13 C8          4.9397    0.0899    0.2599 C.2       1 <0>         0.2515
     14 C9          4.9135    1.4406    0.2646 C.2       1 <0>        -0.4715
     15 C10         3.6672    2.1616   -0.0209 C.2       1 <0>         0.4262
     16 O5          3.6892    3.3533   -0.2618 O.2       1 <0>        -0.5249
     17 O6          6.0953   -0.5629    0.5246 O.3       1 <0>        -0.6626
     18 H1         -0.9614    1.9000    0.0260 H         1 <0>         0.1373
     19 H2          1.1479    3.1770    0.0076 H         1 <0>         0.1348
     20 H3          1.2162   -1.7706   -0.0189 H         1 <0>         0.1433
     21 H4          5.8158    1.9937    0.4799 H         1 <0>         0.1142
@<TRIPOS>BOND
     1    1    6 ar
     2    1    2 ar
     3    1   18 1
     4    2    3 ar
     5    2   19 1
     6    3   15 1
     7    3    4 ar
     8    4    5 ar
     9    4   11 1
    10    5    6 ar
    11    5   20 1
    12    6    7 1
    13    7    8 2
    14    7    9 2
    15    7   10 1
    16   11   12 2
    17   11   13 1
    18   13   14 2
    19   13   17 1
    20   14   15 1
    21   14   21 1
    22   15   16 2
@<TRIPOS>MOLECULE
ZINC19764257
   38    40     0     0     0
SMALL
USER_CHARGES
ethyl-(2-hydrazino-2-oxo-ethyl)-oxo-BLAHcarboxylic acid
@<TRIPOS>ATOM
      1 C1         -4.0840    3.7116   -6.5726 C.3       1 <0>        -0.1348
      2 C2         -4.5281    4.5284   -5.3575 C.3       1 <0>        -0.0746
      3 C3         -3.7840    4.0557   -4.1352 C.2       1 <0>         0.3975
      4 N1         -2.9183    3.0838   -4.2479 N.2       1 <0>        -0.4844
      5 C4         -2.2451    2.6438   -3.1876 C.2       1 <0>         0.0792
      6 C5         -2.4277    3.1932   -1.9118 C.2       1 <0>        -0.1847
      7 C6         -1.6172    2.6076   -0.8335 C.2       1 <0>        -0.0194
      8 C7         -0.7865    1.6071   -1.1730 C.2       1 <0>        -0.2207
      9 S1         -1.0235    1.3864   -2.9214 S.3       1 <0>         0.1398
     10 C8         -0.0127    1.0858    0.0080 C.3       1 <0>        -0.0284
     11 C9         -0.7835    1.6076    1.2406 C.3       1 <0>        -0.0815
     12 C10        -1.4707    2.8653    0.6689 C.3       1 <0>        -0.0867
     13 H1         -0.9052    3.7856    0.8770 H         1 <0>         0.0880
     14 C11        -2.8262    3.0547    1.2998 C.2       1 <0>         0.4707
     15 O1         -3.8231    2.9913    0.6200 O.co2     1 <0>        -0.6053
     16 O2         -2.9259    3.2936    2.6168 O.co2     1 <0>        -0.7820
     17 C12        -3.3829    4.2572   -1.8207 C.2       1 <0>         0.5480
     18 O3         -3.6103    4.7976   -0.7521 O.2       1 <0>        -0.4539
     19 N2         -4.0256    4.6483   -2.9376 N.am      1 <0>        -0.5164
     20 C13        -5.0052    5.7347   -2.8590 C.3       1 <0>         0.0757
     21 C14        -6.3690    5.1615   -2.5714 C.2       1 <0>         0.5014
     22 O4         -6.5088    3.9635   -2.4447 O.2       1 <0>        -0.4988
     23 N3         -7.4332    5.9803   -2.4551 N.am      1 <0>        -0.5979
     24 N4         -8.6694    5.4607   -2.1945 N.3       1 <0>        -0.5721
     25 H2         -4.6272    4.0567   -7.4647 H         1 <0>         0.0592
     26 H3         -4.3026    2.6476   -6.3989 H         1 <0>         0.0677
     27 H4         -3.0030    3.8433   -6.7277 H         1 <0>         0.0679
     28 H5         -4.3095    5.5924   -5.5312 H         1 <0>         0.0971
     29 H6         -5.6091    4.3968   -5.2024 H         1 <0>         0.0939
     30 H7          0.0102   -0.0135   -0.0250 H         1 <0>         0.0724
     31 H8          1.0155    1.4752   -0.0265 H         1 <0>         0.0787
     32 H9         -1.4953    0.8405    1.5796 H         1 <0>         0.0726
     33 H10        -0.0728    1.8315    2.0498 H         1 <0>         0.0795
     34 H11        -4.7210    6.4271   -2.0529 H         1 <0>         0.1321
     35 H12        -5.0295    6.2765   -3.8160 H         1 <0>         0.1212
     36 H13        -7.3064    7.0669   -2.5700 H         1 <0>         0.4171
     37 H14        -9.4050    6.2764   -2.1354 H         1 <0>         0.3502
     38 H15        -8.9535    4.7684   -3.0007 H         1 <0>         0.3318
@<TRIPOS>BOND
     1    1    2 1
     2    1   25 1
     3    1   26 1
     4    1   27 1
     5    2    3 1
     6    2   28 1
     7    2   29 1
     8    3   19 1
     9    3    4 2
    10    4    5 1
    11    5    9 1
    12    5    6 2
    13    6    7 1
    14    6   17 1
    15    7   12 1
    16    7    8 2
    17    8    9 1
    18    8   10 1
    19   10   11 1
    20   10   30 1
    21   10   31 1
    22   11   12 1
    23   11   32 1
    24   11   33 1
    25   12   13 1
    26   12   14 1
    27   14   15 2
    28   14   16 1
    29   17   18 2
    30   17   19 am
    31   19   20 1
    32   20   21 1
    33   20   34 1
    34   20   35 1
    35   21   22 2
    36   21   23 am
    37   23   24 1
    38   23   36 1
    39   24   37 1
    40   24   38 1
@<TRIPOS>MOLECULE
ZINC37022623
   28    28     0     0     0
SMALL
USER_CHARGES

@<TRIPOS>ATOM
      1 C1         -0.0187    1.5258    0.0104 C.3       1 <0>        -0.1051
      2 C2          0.0021   -0.0041    0.0020 C.3       1 <0>        -0.1808
      3 C3         -1.4117   -0.5257    0.0127 C.2       1 <0>         0.4897
      4 O1         -2.3491    0.2539    0.0259 O.co2     1 <0>        -0.6992
      5 O2         -1.6182   -1.7273    0.0082 O.co2     1 <0>        -0.7047
      6 C4          1.4167    2.0553   -0.0004 C.3       1 <0>         0.1157
      7 N1          1.3968    3.5202    0.0076 N.am      1 <0>        -0.7139
      8 C5          2.5547    4.2099    0.0003 C.2       1 <0>         0.5310
      9 O3          3.6131    3.6178   -0.0130 O.2       1 <0>        -0.5307
     10 C6          2.5343    5.7167    0.0086 C.3       1 <0>        -0.1577
     11 S1          4.2361    6.3446   -0.0043 S.3       1 <0>         0.1271
     12 C7          4.0444    8.0961    0.0069 C.2       1 <0>         0.0324
     13 N2          2.9391    8.8160    0.0272 N.2       1 <0>        -0.2792
     14 N3          3.0170   10.1895    0.0330 N.2       1 <0>        -0.3734
     15 C8          4.1959   10.7801    0.0182 C.2       1 <0>         0.3467
     16 S2          5.2947    9.3718    0.0018 S.3       1 <0>        -0.0022
     17 N4          4.5018   12.1360    0.0205 N.pl3     1 <0>        -0.7917
     18 H1         -0.5459    1.8868   -0.8726 H         1 <0>         0.0677
     19 H2         -0.5289    1.8773    0.9072 H         1 <0>         0.0677
     20 H3          0.5123   -0.3556   -0.8948 H         1 <0>         0.0602
     21 H4          0.5293   -0.3651    0.8851 H         1 <0>         0.0601
     22 H5          1.9439    1.6943    0.8826 H         1 <0>         0.0676
     23 H6          1.9269    1.7038   -0.8972 H         1 <0>         0.0676
     24 H7          0.5503    3.9937    0.0183 H         1 <0>         0.4057
     25 H8          2.0071    6.0778   -0.8745 H         1 <0>         0.1279
     26 H9          2.0241    6.0683    0.9054 H         1 <0>         0.1280
     27 H10         3.7892   12.7939    0.0349 H         1 <0>         0.4215
     28 H11         5.4278   12.4242    0.0076 H         1 <0>         0.4220
@<TRIPOS>BOND
     1    1    2 1
     2    1    6 1
     3    1   18 1
     4    1   19 1
     5    2    3 1
     6    2   20 1
     7    2   21 1
     8    3    4 2
     9    3    5 1
    10    6    7 1
    11    6   22 1
    12    6   23 1
    13    7    8 am
    14    7   24 1
    15    8    9 2
    16    8   10 1
    17   10   11 1
    18   10   25 1
    19   10   26 1
    20   11   12 1
    21   12   16 1
    22   12   13 2
    23   13   14 1
    24   14   15 2
    25   15   16 1
    26   15   17 1
    27   17   27 1
    28   17   28 1
@<TRIPOS>MOLECULE
ZINC37993695
   38    37     0     0     0
SMALL
USER_CHARGES

@<TRIPOS>ATOM
      1 C1          0.5562    0.5835    0.0622 C.3       1 <0>        -0.1703
      2 C2         -0.1504   -0.7486   -0.1967 C.3       1 <0>        -0.0931
      3 C3          0.2571   -1.7593    0.8772 C.3       1 <0>        -0.1479
      4 C4         -1.6654   -0.5395   -0.1516 C.3       1 <0>         0.1478
      5 H1         -1.9444    0.2482   -0.8515 H         1 <0>         0.1049
      6 C5         -2.0763   -0.1415    1.2426 C.2       1 <0>         0.5161
      7 O1         -2.2480   -0.9918    2.0902 O.2       1 <0>        -0.5418
      8 N1         -2.2529    1.1594    1.5475 N.am      1 <0>        -0.5653
      9 C6         -2.7749    1.5391    2.8627 C.3       1 <0>         0.0449
     10 C7         -1.6287    1.7300    3.8221 C.2       1 <0>         0.4873
     11 O2         -0.4819    1.5643    3.4426 O.co2     1 <0>        -0.6772
     12 O3         -1.8480    2.0502    4.9779 O.co2     1 <0>        -0.7056
     13 C8         -1.9228    2.1937    0.5639 C.3       1 <0>         0.1224
     14 C9         -3.1783    3.0041    0.2352 C.3       1 <0>        -0.1641
     15 C10        -0.8525    3.1227    1.1404 C.3       1 <0>        -0.1590
     16 N2         -2.3416   -1.7849   -0.5232 N.am      1 <0>        -0.7250
     17 C11        -2.5505   -2.0766   -1.8223 C.2       1 <0>         0.7081
     18 O4         -2.1778   -1.3061   -2.6859 O.2       1 <0>        -0.5972
     19 N3         -3.1725   -3.2223   -2.1641 N.am      1 <0>        -0.8685
     20 H2          1.6291    0.4605   -0.0860 H         1 <0>         0.0559
     21 H3          0.1778    1.3360   -0.6296 H         1 <0>         0.0554
     22 H4          0.3652    0.9029    1.0867 H         1 <0>         0.0952
     23 H5          0.1351   -1.1266   -1.1784 H         1 <0>         0.0773
     24 H6         -0.0285   -1.3814    1.8589 H         1 <0>         0.0752
     25 H7         -0.2464   -2.7084    0.6927 H         1 <0>         0.0478
     26 H8          1.3364   -1.9083    0.8451 H         1 <0>         0.0502
     27 H9         -3.3353    2.4700    2.7762 H         1 <0>         0.0718
     28 H10        -3.4321    0.7526    3.2336 H         1 <0>         0.0761
     29 H11        -1.5454    1.7241   -0.3444 H         1 <0>         0.0903
     30 H12        -3.5557    3.4737    1.1436 H         1 <0>         0.0614
     31 H13        -2.9327    3.7736   -0.4966 H         1 <0>         0.0650
     32 H14        -3.9408    2.3422   -0.1754 H         1 <0>         0.0534
     33 H15         0.0436    2.5462    1.3700 H         1 <0>         0.0864
     34 H16        -0.6105    3.8951    0.4104 H         1 <0>         0.0477
     35 H17        -1.2282    3.5886    2.0514 H         1 <0>         0.0603
     36 H18        -2.6389   -2.3996    0.1658 H         1 <0>         0.4042
     37 H19        -3.4698   -3.8370   -1.4752 H         1 <0>         0.3970
     38 H20        -3.3229   -3.4322   -3.0991 H         1 <0>         0.4131
@<TRIPOS>BOND
     1    1    2 1
     2    1   20 1
     3    1   21 1
     4    1   22 1
     5    2    3 1
     6    2    4 1
     7    2   23 1
     8    3   24 1
     9    3   25 1
    10    3   26 1
    11    4    5 1
    12    4    6 1
    13    4   16 1
    14    6    7 2
    15    6    8 am
    16    8    9 1
    17    8   13 1
    18    9   10 1
    19    9   27 1
    20    9   28 1
    21   10   11 2
    22   10   12 1
    23   13   14 1
    24   13   15 1
    25   13   29 1
    26   14   30 1
    27   14   31 1
    28   14   32 1
    29   15   33 1
    30   15   34 1
    31   15   35 1
    32   16   17 am
    33   16   36 1
    34   17   18 2
    35   17   19 am
    36   19   37 1
    37   19   38 1
@<TRIPOS>MOLECULE
ZINC42357061
   33    33     0     0     0
SMALL
USER_CHARGES

@<TRIPOS>ATOM
      1 C1         -0.0225    1.8097    0.0120 C.3       1 <0>        -0.1202
      2 S1          0.0021   -0.0041    0.0020 S.3       1 <0>        -0.2769
      3 C2         -1.7518   -0.4668    0.0163 C.3       1 <0>        -0.0721
      4 C3         -1.8771   -1.9917    0.0093 C.3       1 <0>        -0.0937
      5 C4         -3.3564   -2.3820    0.0213 C.3       1 <0>         0.1013
      6 H1         -3.8661   -1.9002   -0.8131 H         1 <0>         0.0839
      7 C5         -3.4823   -3.8780   -0.1094 C.2       1 <0>         0.4929
      8 O1         -3.4997   -4.5778    0.8889 O.co2     1 <0>        -0.6899
      9 O2         -3.5667   -4.3886   -1.2133 O.co2     1 <0>        -0.6933
     10 N1         -3.9655   -1.9489    1.2813 N.am      1 <0>        -0.7136
     11 C6         -5.2910   -1.7131    1.3430 C.2       1 <0>         0.7034
     12 O3         -5.9813   -1.8598    0.3529 O.2       1 <0>        -0.5934
     13 N2         -5.8514   -1.3146    2.5022 N.am      1 <0>        -0.7500
     14 C7         -7.2922   -1.0583    2.5693 C.3       1 <0>         0.2194
     15 C8         -7.6616   -0.6289    3.9658 C.2       1 <0>        -0.2538
     16 C9         -8.0245   -1.4472    4.9805 C.2       1 <0>         0.0820
     17 N3         -8.2736   -0.6775    6.0606 N.pl3     1 <0>        -0.4782
     18 H2         -8.5533   -0.9933    6.9341 H         1 <0>         0.4396
     19 N4         -8.0565    0.6579    5.6977 N.2       1 <0>        -0.3002
     20 C10        -7.6839    0.6854    4.4438 C.2       1 <0>         0.0675
     21 H3          1.0001    2.1870    0.0043 H         1 <0>         0.0972
     22 H4         -0.5497    2.1708   -0.8711 H         1 <0>         0.0736
     23 H5         -0.5327    2.1613    0.9088 H         1 <0>         0.0726
     24 H6         -2.2257   -0.0675    0.9130 H         1 <0>         0.0785
     25 H7         -2.2427   -0.0579   -0.8669 H         1 <0>         0.0799
     26 H8         -1.4032   -2.3910   -0.8874 H         1 <0>         0.0865
     27 H9         -1.3862   -2.4006    0.8924 H         1 <0>         0.0746
     28 H10        -3.4147   -1.8318    2.0712 H         1 <0>         0.3874
     29 H11        -5.3006   -1.1976    3.2921 H         1 <0>         0.3912
     30 H12        -7.5539   -0.2685    1.8651 H         1 <0>         0.0701
     31 H13        -7.8354   -1.9680    2.3132 H         1 <0>         0.0688
     32 H14        -8.1012   -2.5235    4.9343 H         1 <0>         0.1806
     33 H15        -7.4391    1.5703    3.8751 H         1 <0>         0.1845
@<TRIPOS>BOND
     1    1    2 1
     2    1   21 1
     3    1   22 1
     4    1   23 1
     5    2    3 1
     6    3    4 1
     7    3   24 1
     8    3   25 1
     9    4    5 1
    10    4   26 1
    11    4   27 1
    12    5    6 1
    13    5    7 1
    14    5   10 1
    15    7    8 2
    16    7    9 1
    17   10   11 am
    18   10   28 1
    19   11   12 2
    20   11   13 am
    21   13   14 1
    22   13   29 1
    23   14   15 1
    24   14   30 1
    25   14   31 1
    26   15   20 1
    27   15   16 2
    28   16   17 1
    29   16   32 1
    30   17   18 1
    31   17   19 1
    32   19   20 2
    33   20   33 1
@<TRIPOS>MOLECULE
ZINC54295619
   43    43     0     0     0
SMALL
USER_CHARGES

@<TRIPOS>ATOM
      1 C1         -0.0225    1.8097    0.0120 C.3       1 <0>        -0.1219
      2 S1          0.0021   -0.0041    0.0020 S.3       1 <0>        -0.2604
      3 C2          0.8734   -0.4227   -1.5329 C.3       1 <0>        -0.0761
      4 C3          0.9658   -1.9439   -1.6683 C.3       1 <0>        -0.1199
      5 C4          1.7007   -2.2970   -2.9630 C.3       1 <0>         0.1594
      6 H1          2.6705   -1.7997   -2.9775 H         1 <0>         0.1113
      7 C5          1.9001   -3.7889   -3.0366 C.2       1 <0>         0.5005
      8 O1          1.1580   -4.4672   -3.7149 O.2       1 <0>        -0.5080
      9 N1          2.9031   -4.3695   -2.3485 N.am      1 <0>        -0.6070
     10 C6          3.8064   -3.5619   -1.5176 C.3       1 <0>         0.1046
     11 C7          5.2519   -3.8570   -1.9304 C.3       1 <0>        -0.1315
     12 C8          5.5034   -5.3645   -1.8501 C.3       1 <0>        -0.1169
     13 C9          4.5668   -6.0919   -2.8174 C.3       1 <0>        -0.0714
     14 H2          4.7368   -5.7286   -3.8309 H         1 <0>         0.0713
     15 C10         3.1101   -5.8228   -2.4102 C.3       1 <0>         0.1145
     16 C11         4.8422   -7.5959   -2.7611 C.3       1 <0>        -0.1795
     17 C12         6.2333   -7.8712   -3.2708 C.2       1 <0>         0.4928
     18 O2          6.9391   -6.9500   -3.6446 O.co2     1 <0>        -0.6937
     19 O3          6.6531   -9.0153   -3.3095 O.co2     1 <0>        -0.7073
     20 N2          0.9071   -1.8531   -4.1116 N.am      1 <0>        -0.7351
     21 C13        -0.3359   -2.3388   -4.3000 C.2       1 <0>         0.7100
     22 O4         -0.7986   -3.1454   -3.5166 O.2       1 <0>        -0.5596
     23 N3         -1.0660   -1.9305   -5.3567 N.am      1 <0>        -0.8711
     24 H3          1.0001    2.1870    0.0043 H         1 <0>         0.0756
     25 H4         -0.5497    2.1708   -0.8711 H         1 <0>         0.0740
     26 H5         -0.5327    2.1613    0.9088 H         1 <0>         0.1009
     27 H6          0.3274   -0.0147   -2.3835 H         1 <0>         0.0808
     28 H7          1.8772    0.0015   -1.5082 H         1 <0>         0.0805
     29 H8          1.5118   -2.3519   -0.8177 H         1 <0>         0.0860
     30 H9         -0.0380   -2.3681   -1.6931 H         1 <0>         0.1069
     31 H10         3.5925   -2.5037   -1.6674 H         1 <0>         0.0751
     32 H11         3.6662   -3.8202   -0.4680 H         1 <0>         0.0690
     33 H12         5.4155   -3.5148   -2.9522 H         1 <0>         0.0647
     34 H13         5.9353   -3.3379   -1.2585 H         1 <0>         0.0692
     35 H14         6.5384   -5.5748   -2.1197 H         1 <0>         0.0989
     36 H15         5.3156   -5.7104   -0.8336 H         1 <0>         0.0469
     37 H16         2.9142   -6.2617   -1.4319 H         1 <0>         0.0617
     38 H17         2.4365   -6.2568   -3.1492 H         1 <0>         0.0857
     39 H18         4.7574   -7.9424   -1.7311 H         1 <0>         0.0575
     40 H19         4.1169   -8.1216   -3.3822 H         1 <0>         0.0575
     41 H20         1.2762   -1.2097   -4.7366 H         1 <0>         0.3985
     42 H21        -0.6969   -1.2871   -5.9817 H         1 <0>         0.3921
     43 H22        -1.9606   -2.2801   -5.4923 H         1 <0>         0.4133
@<TRIPOS>BOND
     1    1    2 1
     2    1   24 1
     3    1   25 1
     4    1   26 1
     5    2    3 1
     6    3    4 1
     7    3   27 1
     8    3   28 1
     9    4    5 1
    10    4   29 1
    11    4   30 1
    12    5    6 1
    13    5    7 1
    14    5   20 1
    15    7    8 2
    16    7    9 am
    17    9   15 1
    18    9   10 1
    19   10   11 1
    20   10   31 1
    21   10   32 1
    22   11   12 1
    23   11   33 1
    24   11   34 1
    25   12   13 1
    26   12   35 1
    27   12   36 1
    28   13   14 1
    29   13   15 1
    30   13   16 1
    31   15   37 1
    32   15   38 1
    33   16   17 1
    34   16   39 1
    35   16   40 1
    36   17   18 2
    37   17   19 1
    38   20   21 am
    39   20   41 1
    40   21   22 2
    41   21   23 am
    42   23   42 1
    43   23   43 1
@<TRIPOS>MOLECULE
ZINC03212577
   39    40     0     0     0
SMALL
USER_CHARGES
4-[4-(3-carboxypropanoylamino)phenoxy]benzene-1,2-dicarboxylic acid
@<TRIPOS>ATOM
      1 C1         -1.6463    3.4110   -0.5487 C.ar      1 <0>        -0.1350
      2 C2         -2.9155    3.9233   -0.3664 C.ar      1 <0>        -0.1101
      3 C3         -3.9985    3.0652   -0.2386 C.ar      1 <0>         0.0888
      4 C4         -3.8074    1.6923   -0.2996 C.ar      1 <0>        -0.1162
      5 C5         -2.5395    1.1791   -0.4876 C.ar      1 <0>        -0.1067
      6 C6         -1.4554    2.0373   -0.6156 C.ar      1 <0>         0.1358
      7 N1         -0.1687    1.5172   -0.8064 N.am      1 <0>        -0.6780
      8 C7          0.0045    0.3993   -1.5391 C.2       1 <0>         0.5094
      9 O1         -0.9583   -0.1915   -1.9808 O.2       1 <0>        -0.5220
     10 C8          1.3944   -0.1165   -1.8097 C.3       1 <0>        -0.1151
     11 C9          1.3107   -1.3875   -2.6573 C.3       1 <0>        -0.1422
     12 C10         2.7005   -1.9033   -2.9279 C.2       1 <0>         0.4626
     13 O2          3.6597   -1.3147   -2.4879 O.co2     1 <0>        -0.6460
     14 O3         -5.2471    3.5700   -0.0539 O.3       1 <0>        -0.2658
     15 C11        -5.7805    3.5103    1.1923 C.ar      1 <0>         0.0762
     16 C12        -5.0942    2.8551    2.2081 C.ar      1 <0>        -0.2022
     17 C13        -5.6242    2.7932    3.4802 C.ar      1 <0>        -0.0841
     18 C14        -6.8598    3.3792    3.7513 C.ar      1 <0>        -0.0908
     19 C15        -7.5607    4.0391    2.7223 C.ar      1 <0>        -0.0678
     20 C16        -7.0130    4.0994    1.4462 C.ar      1 <0>        -0.1063
     21 C17        -8.8718    4.6645    2.9987 C.2       1 <0>         0.4820
     22 O4         -9.3183    4.6650    4.1282 O.co2     1 <0>        -0.5717
     23 C18        -7.4310    3.3091    5.1103 C.2       1 <0>         0.5109
     24 O5         -7.7193    4.3305    5.7015 O.co2     1 <0>        -0.5951
     25 H1         -0.8028    4.0788   -0.6434 H         1 <0>         0.1277
     26 H2         -3.0648    4.9918   -0.3192 H         1 <0>         0.1325
     27 H3         -4.6506    1.0249   -0.1997 H         1 <0>         0.1334
     28 H4         -2.3909    0.1104   -0.5355 H         1 <0>         0.1421
     29 H5          0.5972    1.9593   -0.4078 H         1 <0>         0.4092
     30 H6          1.9650    0.6413   -2.3466 H         1 <0>         0.0941
     31 H7          1.8886   -0.3418   -0.8647 H         1 <0>         0.0949
     32 H8          0.7400   -2.1453   -2.1205 H         1 <0>         0.0725
     33 H9          0.8164   -1.1621   -3.6023 H         1 <0>         0.0716
     34 H10        -4.1387    2.3960    2.0014 H         1 <0>         0.1154
     35 H11        -5.0835    2.2863    4.2658 H         1 <0>         0.1169
     36 H12        -7.5450    4.6033    0.6529 H         1 <0>         0.1326
     37 O6          2.8730   -3.0166   -3.6577 O.co2     1 <0>        -0.7759
     38 O7         -9.5708    5.2338    1.9979 O.co2     1 <0>        -0.7870
     39 O8         -7.6328    2.1122    5.6954 O.co2     1 <0>        -0.7906
@<TRIPOS>BOND
     1    1    6 ar
     2    1    2 ar
     3    1   25 1
     4    2    3 ar
     5    2   26 1
     6    3    4 ar
     7    3   14 1
     8    4    5 ar
     9    4   27 1
    10    5    6 ar
    11    5   28 1
    12    6    7 1
    13    7    8 am
    14    7   29 1
    15    8    9 2
    16    8   10 1
    17   10   11 1
    18   10   30 1
    19   10   31 1
    20   11   12 1
    21   11   32 1
    22   11   33 1
    23   12   13 2
    24   12   37 1
    25   14   15 1
    26   15   20 ar
    27   15   16 ar
    28   16   17 ar
    29   16   34 1
    30   17   18 ar
    31   17   35 1
    32   18   19 ar
    33   18   23 1
    34   19   20 ar
    35   19   21 1
    36   20   36 1
    37   21   22 2
    38   21   38 1
    39   23   24 2
    40   23   39 1
@<TRIPOS>MOLECULE
ZINC19824396
   43    44     0     0     0
SMALL
USER_CHARGES
(2S)-2-[4-[(E)-(1-allyl-4,6-dioxo-2-thioxo-hexahydropyrimidin-5-ylidene)methyl]-2-methoxy-phenoxy]propanoic acid
@<TRIPOS>ATOM
      1 C1          3.1240    1.8926    0.6430 C.3       1 <0>        -0.1528
      2 C2          1.5963    1.9409    0.5747 C.3       1 <0>         0.0331
      3 H1          1.1586    2.3067    1.5152 H         1 <0>         0.0769
      4 C3          1.1723    2.8143   -0.5780 C.2       1 <0>         0.4768
      5 O1          0.5019    2.3527   -1.4709 O.co2     1 <0>        -0.6143
      6 O2          1.5395    4.1049   -0.6126 O.co2     1 <0>        -0.7580
      7 O3          1.0859    0.6199    0.3842 O.3       1 <0>        -0.2761
      8 C4          0.9478   -0.1529    1.4914 C.ar      1 <0>         0.1463
      9 C5          1.2378    0.3744    2.7445 C.ar      1 <0>        -0.1972
     10 C6          1.0955   -0.4015    3.8716 C.ar      1 <0>        -0.0076
     11 C7          0.6662   -1.7324    3.7562 C.ar      1 <0>        -0.1115
     12 C8          0.3792   -2.2644    2.4898 C.ar      1 <0>        -0.1364
     13 C9          0.5207   -1.4760    1.3670 C.ar      1 <0>         0.0679
     14 O4          0.2435   -1.9878    0.1380 O.3       1 <0>        -0.3015
     15 C10        -0.1888   -3.3488    0.0845 C.3       1 <0>         0.0258
     16 C11         0.5181   -2.5622    4.9517 C.2       1 <0>         0.0809
     17 C12        -0.1544   -2.0715    6.0542 C.2       1 <0>        -0.2951
     18 C13        -0.9294   -0.8163    5.9890 C.2       1 <0>         0.5240
     19 O5         -0.9969   -0.1763    4.9568 O.3       1 <0>        -0.4898
     20 N1         -1.5601   -0.3988    7.1060 N.2       1 <0>        -0.6251
     21 C14        -1.4939   -1.0939    8.2500 C.2       1 <0>         0.5470
     22 S1         -2.3272   -0.4857    9.6163 S.2       1 <0>        -0.7195
     23 N2         -0.8102   -2.2390    8.3827 N.am      1 <0>        -0.5417
     24 C15        -0.1353   -2.7818    7.3484 C.2       1 <0>         0.5639
     25 O6          0.4768   -3.8248    7.4800 O.2       1 <0>        -0.5235
     26 C16        -0.8013   -2.9207    9.6794 C.3       1 <0>         0.1195
     27 C17        -1.9545   -3.8885    9.7461 C.2       1 <0>        -0.1429
     28 C18        -1.7355   -5.1505   10.0209 C.2       1 <0>        -0.1979
     29 H2          3.4334    1.2551    1.4843 H         1 <0>         0.0505
     30 H3          3.5168    2.9096    0.7897 H         1 <0>         0.0778
     31 H4          3.5201    1.4784   -0.2959 H         1 <0>         0.0589
     32 H5          1.5721    1.3974    2.8338 H         1 <0>         0.1392
     33 H6          1.3179    0.0122    4.8441 H         1 <0>         0.1192
     34 H7          0.0481   -3.2880    2.3947 H         1 <0>         0.1300
     35 H8         -0.3771   -3.6328   -0.9614 H         1 <0>         0.0947
     36 H9         -1.1144   -3.4627    0.6678 H         1 <0>         0.0501
     37 H10         0.5924   -3.9985    0.5059 H         1 <0>         0.0485
     38 H11         0.9422   -3.5769    4.9728 H         1 <0>         0.1399
     39 H12         0.1448   -3.4689    9.7989 H         1 <0>         0.0835
     40 H13        -0.8989   -2.1779   10.4848 H         1 <0>         0.1281
     41 H14        -2.9802   -3.5352    9.5640 H         1 <0>         0.1168
     42 H15        -2.5773   -5.8569   10.0696 H         1 <0>         0.0955
     43 H16        -0.7098   -5.5038   10.2030 H         1 <0>         0.0961
@<TRIPOS>BOND
     1    1    2 1
     2    1   29 1
     3    1   30 1
     4    1   31 1
     5    2    3 1
     6    2    4 1
     7    2    7 1
     8    4    5 2
     9    4    6 1
    10    7    8 1
    11    8   13 ar
    12    8    9 ar
    13    9   10 ar
    14    9   32 1
    15   10   11 ar
    16   10   33 1
    17   11   12 ar
    18   11   16 1
    19   12   13 ar
    20   12   34 1
    21   13   14 1
    22   14   15 1
    23   15   35 1
    24   15   36 1
    25   15   37 1
    26   16   17 2
    27   16   38 1
    28   17   24 1
    29   17   18 1
    30   18   19 1
    31   18   20 2
    32   20   21 1
    33   21   22 2
    34   21   23 1
    35   23   24 am
    36   23   26 1
    37   24   25 2
    38   26   27 1
    39   26   39 1
    40   26   40 1
    41   27   28 2
    42   27   41 1
    43   28   42 1
    44   28   43 1
@<TRIPOS>MOLECULE
ZINC37046586
   22    22     0     0     0
SMALL
USER_CHARGES

@<TRIPOS>ATOM
      1 C1         -0.0159    1.3969    0.0930 C.ar      1 <0>        -0.0022
      2 C2          1.1684    2.0990    0.0677 C.ar      1 <0>        -0.2526
      3 C3          2.3807    1.4196    0.0043 C.ar      1 <0>         0.3397
      4 C4          2.4013    0.0275   -0.0334 C.ar      1 <0>        -0.1632
      5 C5          1.2206   -0.6806   -0.0079 C.ar      1 <0>         0.0085
      6 C6          0.0006   -0.0003    0.0554 C.ar      1 <0>        -0.1808
      7 C7         -1.2293   -0.7334    0.0820 C.1       1 <0>         0.2976
      8 N1         -2.2049   -1.3149    0.1031 N.1       1 <0>        -0.4995
      9 Br1         4.0520   -0.8909   -0.1201 Br        1 <0>        -0.0731
     10 N2          3.5762    2.1329   -0.0220 N.2       1 <0>        -1.0781
     11 S1          3.5524    3.7847   -0.1385 S.o2      1 <0>         2.5793
     12 O1          2.8803    4.0523   -1.3615 O.2       1 <0>        -1.0228
     13 O2          3.0101    4.2276    1.0981 O.2       1 <0>        -1.0236
     14 C8          5.2962    4.2682   -0.2650 C.3       1 <0>        -0.6575
     15 C9          5.3948    5.7678   -0.3770 C.2       1 <0>         0.5187
     16 O3          4.3825    6.4473   -0.3720 O.co2     1 <0>        -0.6859
     17 O4          6.4868    6.3015   -0.4727 O.co2     1 <0>        -0.6916
     18 H1         -0.9564    1.9251    0.1464 H         1 <0>         0.1137
     19 H2          1.1560    3.1785    0.0968 H         1 <0>         0.1211
     20 H3          1.2368   -1.7601   -0.0375 H         1 <0>         0.1179
     21 H4          5.8312    3.9343    0.6240 H         1 <0>         0.1170
     22 H5          5.7376    3.8080   -1.1490 H         1 <0>         0.1172
@<TRIPOS>BOND
     1    1    6 ar
     2    1    2 ar
     3    1   18 1
     4    2    3 ar
     5    2   19 1
     6    3    4 ar
     7    3   10 1
     8    4    5 ar
     9    4    9 1
    10    5    6 ar
    11    5   20 1
    12    6    7 1
    13    7    8 3
    14   10   11 1
    15   11   12 2
    16   11   13 2
    17   11   14 1
    18   14   15 1
    19   14   21 1
    20   14   22 1
    21   15   16 2
    22   15   17 1
@<TRIPOS>MOLECULE
ZINC57963383
   35    35     0     0     0
SMALL
USER_CHARGES

@<TRIPOS>ATOM
      1 C1         -0.0187    1.5258    0.0104 C.3       1 <0>        -0.1406
      2 C2          0.0021   -0.0041    0.0020 C.3       1 <0>        -0.0413
      3 C3          0.7421   -0.5109    1.2415 C.3       1 <0>        -0.1413
      4 C4         -1.4117   -0.5257    0.0127 C.ar      1 <0>        -0.1170
      5 C5         -2.2592   -0.2048    1.0557 C.ar      1 <0>        -0.0948
      6 C6         -3.5561   -0.6834    1.0663 C.ar      1 <0>        -0.0348
      7 C7         -4.0087   -1.4838    0.0335 C.ar      1 <0>        -0.0452
      8 C8         -3.1656   -1.8071   -1.0117 C.ar      1 <0>        -0.2070
      9 C9         -1.8651   -1.3237   -1.0273 C.ar      1 <0>         0.0862
     10 O1         -1.0353   -1.6358   -2.0574 O.3       1 <0>        -0.3253
     11 C10        -1.5698   -2.4619   -3.0937 C.3       1 <0>         0.0329
     12 C11        -4.4780   -0.3326    2.2057 C.3       1 <0>        -0.1071
     13 H1         -3.9499    0.3003    2.9188 H         1 <0>         0.0644
     14 C12        -5.6967    0.4169    1.6634 C.3       1 <0>        -0.1492
     15 C13        -6.5571    0.8748    2.8127 C.2       1 <0>         0.4864
     16 O2         -6.2263    0.6249    3.9593 O.co2     1 <0>        -0.6388
     17 O3         -7.5840    1.4953    2.5961 O.co2     1 <0>        -0.7483
     18 C14        -4.9299   -1.5953    2.8932 C.2       1 <0>         0.4985
     19 O4         -4.5395   -2.6794    2.4949 O.co2     1 <0>        -0.7309
     20 O5         -5.6859   -1.5326    3.8477 O.co2     1 <0>        -0.6413
     21 H2          1.0039    1.9031    0.0027 H         1 <0>         0.0468
     22 H3         -0.5459    1.8868   -0.8726 H         1 <0>         0.0515
     23 H4         -0.5289    1.8773    0.9072 H         1 <0>         0.0576
     24 H5          0.5123   -0.3556   -0.8948 H         1 <0>         0.0750
     25 H6          0.2319   -0.1594    2.1383 H         1 <0>         0.0579
     26 H7          0.7568   -1.6008    1.2356 H         1 <0>         0.0530
     27 H8          1.7647   -0.1336    1.2338 H         1 <0>         0.0464
     28 H9         -1.9081    0.4202    1.8635 H         1 <0>         0.1168
     29 H10        -5.0222   -1.8568    0.0443 H         1 <0>         0.1181
     30 H11        -3.5195   -2.4323   -1.8181 H         1 <0>         0.1133
     31 H12        -1.8844   -3.4163   -2.6715 H         1 <0>         0.0492
     32 H13        -2.4271   -1.9654   -3.5483 H         1 <0>         0.0477
     33 H14        -0.8056   -2.6341   -3.8516 H         1 <0>         0.0857
     34 H15        -5.3652    1.2827    1.0902 H         1 <0>         0.0337
     35 H16        -6.2739   -0.2461    1.0190 H         1 <0>         0.0418
@<TRIPOS>BOND
     1    1    2 1
     2    1   21 1
     3    1   22 1
     4    1   23 1
     5    2    3 1
     6    2    4 1
     7    2   24 1
     8    3   25 1
     9    3   26 1
    10    3   27 1
    11    4    9 ar
    12    4    5 ar
    13    5    6 ar
    14    5   28 1
    15    6    7 ar
    16    6   12 1
    17    7    8 ar
    18    7   29 1
    19    8    9 ar
    20    8   30 1
    21    9   10 1
    22   10   11 1
    23   11   31 1
    24   11   32 1
    25   11   33 1
    26   12   13 1
    27   12   14 1
    28   12   18 1
    29   14   15 1
    30   14   34 1
    31   14   35 1
    32   15   16 2
    33   15   17 1
    34   18   19 2
    35   18   20 1
@<TRIPOS>MOLECULE
ZINC62302155
   28    29     0     0     0
SMALL
USER_CHARGES

@<TRIPOS>ATOM
      1 C1          2.0126    2.6201    0.4720 C.3       1 <0>        -0.1447
      2 C2          2.7660    1.5138    1.2292 C.3       1 <0>        -0.1461
      3 C3          1.8621    0.5069    0.4984 C.3       1 <0>        -0.0242
      4 C4          1.7081    1.5663   -0.6057 C.3       1 <0>        -0.0988
      5 C5          2.5849   -0.7357    0.0461 C.2       1 <0>         0.0823
      6 C6          2.3422   -1.4564   -1.1031 C.2       1 <0>        -0.0999
      7 N1          3.1999   -2.4925   -1.1386 N.2       1 <0>        -0.2205
      8 N2          3.9537   -2.4635   -0.0955 N.2       1 <0>        -0.1254
      9 N3          3.5976   -1.3541    0.6837 N.pl3     1 <0>        -0.3545
     10 C7          4.2080   -0.9469    1.9516 C.3       1 <0>         0.1344
     11 C8          3.3818   -1.4977    3.1156 C.3       1 <0>        -0.1953
     12 C9          4.0097   -1.0788    4.4199 C.2       1 <0>         0.5028
     13 O1          5.0241   -0.4024    4.4186 O.co2     1 <0>        -0.6978
     14 O2          3.5034   -1.4163    5.4764 O.co2     1 <0>        -0.7013
     15 C10         1.3211   -1.1468   -2.1162 C.2       1 <0>         0.5674
     16 O3          0.3724   -0.4296   -1.8292 O.co2     1 <0>        -0.6816
     17 O4          1.4208   -1.6065   -3.2456 O.co2     1 <0>        -0.6850
     18 H1          1.1258    2.9802    0.9936 H         1 <0>         0.0773
     19 H2          2.6569    3.4273    0.1236 H         1 <0>         0.0611
     20 H3          3.8180    1.4355    0.9548 H         1 <0>         0.0796
     21 H4          2.6095    1.5384    2.3076 H         1 <0>         0.0735
     22 H5          0.9342    0.2893    1.0271 H         1 <0>         0.1067
     23 H6          0.6975    1.6332   -1.0086 H         1 <0>         0.0915
     24 H7          2.4708    1.5023   -1.3817 H         1 <0>         0.0710
     25 H8          5.2232   -1.3396    2.0088 H         1 <0>         0.0935
     26 H9          4.2356    0.1413    2.0086 H         1 <0>         0.1037
     27 H10         2.3666   -1.1050    3.0584 H         1 <0>         0.0653
     28 H11         3.3542   -2.5859    3.0586 H         1 <0>         0.0652
@<TRIPOS>BOND
     1    1    4 1
     2    1    2 1
     3    1   18 1
     4    1   19 1
     5    2    3 1
     6    2   20 1
     7    2   21 1
     8    3    4 1
     9    3    5 1
    10    3   22 1
    11    4   23 1
    12    4   24 1
    13    5    9 1
    14    5    6 2
    15    6    7 1
    16    6   15 1
    17    7    8 2
    18    8    9 1
    19    9   10 1
    20   10   11 1
    21   10   25 1
    22   10   26 1
    23   11   12 1
    24   11   27 1
    25   11   28 1
    26   12   13 2
    27   12   14 1
    28   15   16 2
    29   15   17 1
@<TRIPOS>MOLECULE
ZINC05525238
   52    52     0     0     0
SMALL
USER_CHARGES
2-[[3-[(carboxymethyl-methyl-carbamoyl)aminomethyl]cyclohexyl]methylcarbamoyl-methyl-amino]acetic acid
@<TRIPOS>ATOM
      1 C1         -0.3314   -3.1094   -2.6014 C.3       1 <0>         0.0901
      2 N1          0.3663   -2.3655   -3.6531 N.am      1 <0>        -0.6079
      3 C2          0.9799   -3.0827   -4.7736 C.3       1 <0>         0.0907
      4 C3          2.4039   -3.4329   -4.4265 C.2       1 <0>         0.4513
      5 O1          2.8596   -3.1160   -3.3532 O.co2     1 <0>        -0.6292
      6 C4          0.4437   -1.0215   -3.5899 C.2       1 <0>         0.7108
      7 O2          1.0228   -0.4041   -4.4628 O.2       1 <0>        -0.5969
      8 N2         -0.1207   -0.3617   -2.5591 N.am      1 <0>        -0.7490
      9 C5         -0.0366    1.0992   -2.4903 C.3       1 <0>         0.1466
     10 C6         -0.7527    1.5927   -1.2315 C.3       1 <0>        -0.1043
     11 H1         -1.7753    1.2154   -1.2238 H         1 <0>         0.0819
     12 C7         -0.0127    1.0858    0.0080 C.3       1 <0>        -0.1124
     13 C8         -0.7288    1.5792    1.2668 C.3       1 <0>        -0.1243
     14 C9         -0.7496    3.1091    1.2752 C.3       1 <0>        -0.1121
     15 C10        -1.4896    3.6159    0.0357 C.3       1 <0>        -0.0959
     16 H2         -1.5044    4.7058    0.0417 H         1 <0>         0.0749
     17 C11        -0.7734    3.1225   -1.2231 C.3       1 <0>        -0.0988
     18 C12        -2.9250    3.0863    0.0466 C.3       1 <0>         0.1393
     19 N3         -3.6465    3.6545    1.1880 N.am      1 <0>        -0.7487
     20 C13        -4.9366    3.3273    1.4003 C.2       1 <0>         0.7091
     21 O3         -5.5016    2.5605    0.6445 O.2       1 <0>        -0.5915
     22 N4         -5.6003    3.8499    2.4504 N.am      1 <0>        -0.6085
     23 C14        -4.9195    4.7738    3.3611 C.3       1 <0>         0.0921
     24 C15        -7.0026    3.4943    2.6812 C.3       1 <0>         0.0904
     25 C16        -7.0729    2.2760    3.5655 C.2       1 <0>         0.4505
     26 O4         -6.0560    1.7581    3.9623 O.co2     1 <0>        -0.6284
     27 H3         -1.3822   -3.2184   -2.8695 H         1 <0>         0.0477
     28 H4          0.1202   -4.0955   -2.4932 H         1 <0>         0.0707
     29 H5         -0.2512   -2.5676   -1.6590 H         1 <0>         0.0593
     30 H6          0.4189   -3.9961   -4.9712 H         1 <0>         0.0771
     31 H7          0.9674   -2.4495   -5.6608 H         1 <0>         0.0867
     32 H8         -0.5827   -0.8542   -1.8627 H         1 <0>         0.3933
     33 H9         -0.5104    1.5323   -3.3712 H         1 <0>         0.0613
     34 H10         1.0101    1.4016   -2.4550 H         1 <0>         0.0617
     35 H11         0.0021   -0.0041    0.0020 H         1 <0>         0.0625
     36 H12         1.0099    1.4631    0.0003 H         1 <0>         0.0638
     37 H13        -1.7514    1.2020    1.2746 H         1 <0>         0.0701
     38 H14        -0.2017    1.2182    2.1499 H         1 <0>         0.0611
     39 H15         0.2730    3.4864    1.2675 H         1 <0>         0.0626
     40 H16        -1.2598    3.4606    2.1720 H         1 <0>         0.0601
     41 H17         0.2491    3.4998   -1.2308 H         1 <0>         0.0704
     42 H18        -1.3006    3.4836   -2.1062 H         1 <0>         0.0683
     43 H19        -3.4250    3.3730   -0.8786 H         1 <0>         0.0605
     44 H20        -2.9107    1.9996    0.1302 H         1 <0>         0.0714
     45 H21        -3.1957    4.2661    1.7910 H         1 <0>         0.3901
     46 H22        -5.0476    5.7958    3.0045 H         1 <0>         0.0445
     47 H23        -5.3471    4.6809    4.3594 H         1 <0>         0.0703
     48 H24        -3.8573    4.5319    3.3968 H         1 <0>         0.0580
     49 H25        -7.5132    4.3258    3.1670 H         1 <0>         0.0762
     50 H26        -7.4846    3.2792    1.7275 H         1 <0>         0.0872
     51 O5          3.1661   -4.0969   -5.3096 O.co2     1 <0>        -0.7780
     52 O6         -8.2652    1.7664    3.9124 O.co2     1 <0>        -0.7765
@<TRIPOS>BOND
     1    1    2 1
     2    1   27 1
     3    1   28 1
     4    1   29 1
     5    2    3 1
     6    2    6 am
     7    3    4 1
     8    3   30 1
     9    3   31 1
    10    4    5 2
    11    4   51 1
    12    6    7 2
    13    6    8 am
    14    8    9 1
    15    8   32 1
    16    9   10 1
    17    9   33 1
    18    9   34 1
    19   10   11 1
    20   10   17 1
    21   10   12 1
    22   12   13 1
    23   12   35 1
    24   12   36 1
    25   13   14 1
    26   13   37 1
    27   13   38 1
    28   14   15 1
    29   14   39 1
    30   14   40 1
    31   15   16 1
    32   15   17 1
    33   15   18 1
    34   17   41 1
    35   17   42 1
    36   18   19 1
    37   18   43 1
    38   18   44 1
    39   19   20 am
    40   19   45 1
    41   20   21 2
    42   20   22 am
    43   22   23 1
    44   22   24 1
    45   23   46 1
    46   23   47 1
    47   23   48 1
    48   24   25 1
    49   24   49 1
    50   24   50 1
    51   25   26 2
    52   25   52 1
@<TRIPOS>MOLECULE
ZINC17024262
   35    35     0     0     0
SMALL
USER_CHARGES
(2R)-2-[[(Z)-3-(4-nitrophenyl)prop-2-enoyl]amino]pentanedioic acid
@<TRIPOS>ATOM
      1 C1          0.8510    2.7192   -1.8430 C.ar      1 <0>        -0.0426
      2 C2          1.9108    3.3801   -2.4274 C.ar      1 <0>        -0.0553
      3 C3          3.2102    3.0593   -2.0750 C.ar      1 <0>        -0.0499
      4 C4          3.4565    2.0776   -1.1310 C.ar      1 <0>        -0.0650
      5 C5          2.4072    1.4118   -0.5335 C.ar      1 <0>        -0.1150
      6 C6          1.0915    1.7305   -0.8839 C.ar      1 <0>         0.0141
      7 C7         -0.0344    1.0246   -0.2507 C.2       1 <0>        -0.0819
      8 C8         -1.0782    1.7231    0.2391 C.2       1 <0>        -0.1510
      9 C9         -0.9872    3.1785    0.3726 C.2       1 <0>         0.5267
     10 O1          0.0688    3.7443    0.1585 O.2       1 <0>        -0.5457
     11 N1         -2.0728    3.8914    0.7327 N.am      1 <0>        -0.6759
     12 C10        -1.9817    5.3474    0.8662 C.3       1 <0>         0.0983
     13 H1         -0.9980    5.6161    1.2513 H         1 <0>         0.0859
     14 C11        -3.0600    5.8392    1.8339 C.3       1 <0>        -0.0870
     15 C12        -2.7805    5.2862    3.2328 C.3       1 <0>        -0.1524
     16 C13        -3.8425    5.7706    4.1859 C.2       1 <0>         0.4607
     17 O2         -4.7318    6.4849    3.7872 O.co2     1 <0>        -0.6379
     18 C14        -2.1860    5.9893   -0.4819 C.2       1 <0>         0.4666
     19 O3         -2.3870    5.3011   -1.4544 O.co2     1 <0>        -0.6421
     20 N2          4.3423    3.7695   -2.7113 N.pl3     1 <0>         0.0367
     21 O4          5.4871    3.4894   -2.4038 O.2       1 <0>        -0.1814
     22 O5          4.1291    4.6339   -3.5424 O.3       1 <0>        -0.1683
     23 H2         -0.1623    2.9675   -2.1224 H         1 <0>         0.1462
     24 H3          1.7266    4.1470   -3.1652 H         1 <0>         0.1495
     25 H4          4.4732    1.8326   -0.8614 H         1 <0>         0.1453
     26 H5          2.6010    0.6460    0.2030 H         1 <0>         0.1415
     27 H6         -0.0263   -0.0532   -0.1825 H         1 <0>         0.1428
     28 H7         -1.9815    1.2094    0.5331 H         1 <0>         0.1376
     29 H8         -2.9144    3.4404    0.9033 H         1 <0>         0.3942
     30 H9         -3.0504    6.9287    1.8653 H         1 <0>         0.0849
     31 H10        -4.0369    5.4941    1.4952 H         1 <0>         0.0580
     32 H11        -2.7901    4.1967    3.2014 H         1 <0>         0.0570
     33 H12        -1.8036    5.6313    3.5714 H         1 <0>         0.0600
     34 O6         -3.8007    5.4086    5.4778 O.co2     1 <0>        -0.7900
     35 O7         -2.1446    7.3255   -0.6022 O.co2     1 <0>        -0.7648
@<TRIPOS>BOND
     1    1    6 ar
     2    1    2 ar
     3    1   23 1
     4    2    3 ar
     5    2   24 1
     6    3    4 ar
     7    3   20 1
     8    4    5 ar
     9    4   25 1
    10    5    6 ar
    11    5   26 1
    12    6    7 1
    13    7    8 2
    14    7   27 1
    15    8    9 1
    16    8   28 1
    17    9   10 2
    18    9   11 am
    19   11   12 1
    20   11   29 1
    21   12   13 1
    22   12   14 1
    23   12   18 1
    24   14   15 1
    25   14   30 1
    26   14   31 1
    27   15   16 1
    28   15   32 1
    29   15   33 1
    30   16   17 2
    31   16   34 1
    32   18   19 2
    33   18   35 1
    34   20   21 2
    35   20   22 1
@<TRIPOS>MOLECULE
ZINC37584242
   32    32     0     0     0
SMALL
USER_CHARGES

@<TRIPOS>ATOM
      1 C1         -0.0187    1.5258    0.0104 C.3       1 <0>        -0.1483
      2 C2          0.0021   -0.0041    0.0020 C.3       1 <0>        -0.0348
      3 C3          0.7074   -0.4901   -1.2379 C.2       1 <0>        -0.2204
      4 C4          2.0280   -0.7542   -1.3955 C.2       1 <0>        -0.1777
      5 C5          2.4803   -1.1935   -2.6167 C.2       1 <0>        -0.0966
      6 C6          1.5152   -1.3296   -3.6029 C.2       1 <0>        -0.2071
      7 S1          0.0363   -0.8355   -2.7387 S.3       1 <0>         0.2052
      8 C7          1.6698   -1.7703   -4.9924 C.2       1 <0>         0.5922
      9 O1          2.7692   -2.0771   -5.4147 O.2       1 <0>        -0.5431
     10 N1          0.5945   -1.8356   -5.8022 N.am      1 <0>        -0.6720
     11 C8          0.7490   -2.2760   -7.1909 C.3       1 <0>         0.0727
     12 H1          1.7058   -1.9263   -7.5786 H         1 <0>         0.0805
     13 C9         -0.3865   -1.6986   -8.0384 C.3       1 <0>        -0.0817
     14 C10        -0.2662   -0.1739   -8.0815 C.3       1 <0>        -0.1784
     15 C11        -1.3846    0.3948   -8.9162 C.2       1 <0>         0.4914
     16 O2         -2.2021   -0.3503   -9.4291 O.co2     1 <0>        -0.6971
     17 O3         -1.4719    1.6000   -9.0787 O.co2     1 <0>        -0.7196
     18 C12         0.7034   -3.7812   -7.2486 C.2       1 <0>         0.4972
     19 O4          0.3757   -4.4194   -6.2628 O.co2     1 <0>        -0.6969
     20 O5          0.9943   -4.3608   -8.2810 O.co2     1 <0>        -0.6991
     21 H2          1.0039    1.9031    0.0027 H         1 <0>         0.0571
     22 H3         -0.5459    1.8868   -0.8726 H         1 <0>         0.0603
     23 H4         -0.5289    1.8773    0.9072 H         1 <0>         0.0586
     24 H5          0.5293   -0.3651    0.8851 H         1 <0>         0.0789
     25 H6         -1.0205   -0.3814    0.0098 H         1 <0>         0.0764
     26 H7          2.7150   -0.6209   -0.5729 H         1 <0>         0.1272
     27 H8          3.5212   -1.4180   -2.7968 H         1 <0>         0.1448
     28 H9         -0.2818   -1.5910   -5.4656 H         1 <0>         0.3901
     29 H10        -0.3228   -2.0968   -9.0510 H         1 <0>         0.0788
     30 H11        -1.3448   -1.9751   -7.5988 H         1 <0>         0.0576
     31 H12        -0.3299    0.2243   -7.0689 H         1 <0>         0.0506
     32 H13         0.6921    0.1026   -8.5211 H         1 <0>         0.0532
@<TRIPOS>BOND
     1    1    2 1
     2    1   21 1
     3    1   22 1
     4    1   23 1
     5    2    3 1
     6    2   24 1
     7    2   25 1
     8    3    7 1
     9    3    4 2
    10    4    5 1
    11    4   26 1
    12    5    6 2
    13    5   27 1
    14    6    7 1
    15    6    8 1
    16    8    9 2
    17    8   10 am
    18   10   11 1
    19   10   28 1
    20   11   12 1
    21   11   13 1
    22   11   18 1
    23   13   14 1
    24   13   29 1
    25   13   30 1
    26   14   15 1
    27   14   31 1
    28   14   32 1
    29   15   16 2
    30   15   17 1
    31   18   19 2
    32   18   20 1
@<TRIPOS>MOLECULE
ZINC42426341
   41    41     0     0     0
SMALL
USER_CHARGES

@<TRIPOS>ATOM
      1 C1         -0.0186    1.5243    0.0054 C.3       1 <0>        -0.1476
      2 C2          0.0018   -0.0056   -0.0020 C.3       1 <0>         0.0527
      3 O1          0.6938   -0.4784    1.1554 O.3       1 <0>        -0.3830
      4 C3          0.7701   -1.9025    1.2456 C.3       1 <0>         0.0757
      5 H1          0.7812   -2.3304    0.2431 H         1 <0>         0.0651
      6 C4          2.0500   -2.2996    1.9847 C.3       1 <0>        -0.1090
      7 C5          2.1492   -3.8253    2.0530 C.3       1 <0>        -0.1336
      8 C6          0.9504   -4.3765    2.8315 C.3       1 <0>         0.1107
      9 N1         -0.2853   -3.8793    2.2113 N.am      1 <0>        -0.6345
     10 C7         -0.4446   -2.4320    2.0141 C.3       1 <0>         0.1165
     11 C8         -1.2545   -4.7346    1.8300 C.2       1 <0>         0.7065
     12 O2         -2.3093   -4.3067    1.4027 O.2       1 <0>        -0.5964
     13 N2         -1.0545   -6.0643    1.9223 N.am      1 <0>        -0.6996
     14 C9         -2.0618   -6.9941    1.4055 C.3       1 <0>         0.0921
     15 H2         -2.5235   -6.5707    0.5135 H         1 <0>         0.0733
     16 C10        -1.3939   -8.3243    1.0514 C.3       1 <0>        -0.0821
     17 C11        -0.4110   -8.1106   -0.1014 C.3       1 <0>        -0.1750
     18 C12         0.2469   -9.4208   -0.4501 C.2       1 <0>         0.4908
     19 O3         -0.0435  -10.4318    0.1663 O.co2     1 <0>        -0.6973
     20 O4          1.0695   -9.4698   -1.3487 O.co2     1 <0>        -0.7204
     21 C13        -3.1173   -7.2259    2.4557 C.2       1 <0>         0.4980
     22 O5         -4.2628   -7.4788    2.1234 O.co2     1 <0>        -0.7041
     23 O6         -2.8259   -7.1604    3.6378 O.co2     1 <0>        -0.7005
     24 H3          1.0041    1.9013   -0.0034 H         1 <0>         0.0589
     25 H4         -0.5464    1.8850   -0.8774 H         1 <0>         0.0676
     26 H5         -0.5279    1.8765    0.9024 H         1 <0>         0.0617
     27 H6         -1.0209   -0.3826    0.0068 H         1 <0>         0.0527
     28 H7          0.5111   -0.3578   -0.8990 H         1 <0>         0.0472
     29 H8          2.9146   -1.9030    1.4525 H         1 <0>         0.0666
     30 H9          2.0273   -1.8916    2.9952 H         1 <0>         0.0700
     31 H10         2.1470   -4.2356    1.0432 H         1 <0>         0.0718
     32 H11         3.0724   -4.1075    2.5590 H         1 <0>         0.0797
     33 H12         0.9631   -5.4660    2.7985 H         1 <0>         0.0847
     34 H13         1.0009   -4.0396    3.8668 H         1 <0>         0.0657
     35 H14        -0.5085   -1.9365    2.9829 H         1 <0>         0.0641
     36 H15        -1.3519   -2.2384    1.4419 H         1 <0>         0.0902
     37 H16        -0.2437   -6.4056    2.3309 H         1 <0>         0.3874
     38 H17        -0.8572   -8.7041    1.9208 H         1 <0>         0.0594
     39 H18        -2.1550   -9.0445    0.7512 H         1 <0>         0.0725
     40 H19        -0.9477   -7.7308   -0.9708 H         1 <0>         0.0516
     41 H20         0.3502   -7.3904    0.1988 H         1 <0>         0.0500
@<TRIPOS>BOND
     1    1    2 1
     2    1   24 1
     3    1   25 1
     4    1   26 1
     5    2    3 1
     6    2   27 1
     7    2   28 1
     8    3    4 1
     9    4    5 1
    10    4   10 1
    11    4    6 1
    12    6    7 1
    13    6   29 1
    14    6   30 1
    15    7    8 1
    16    7   31 1
    17    7   32 1
    18    8    9 1
    19    8   33 1
    20    8   34 1
    21    9   10 1
    22    9   11 am
    23   10   35 1
    24   10   36 1
    25   11   12 2
    26   11   13 am
    27   13   14 1
    28   13   37 1
    29   14   15 1
    30   14   16 1
    31   14   21 1
    32   16   17 1
    33   16   38 1
    34   16   39 1
    35   17   18 1
    36   17   40 1
    37   17   41 1
    38   18   19 2
    39   18   20 1
    40   21   22 2
    41   21   23 1
@<TRIPOS>MOLECULE
ZINC37456898
   36    37     0     0     0
SMALL
USER_CHARGES

@<TRIPOS>ATOM
      1 C1         -0.0127    1.0858    0.0080 C.3       1 <0>        -0.1033
      2 C2         -0.7416    1.5850   -1.2129 C.ar      1 <0>         0.2533
      3 C3         -0.0474    1.8319   -2.4017 C.ar      1 <0>        -0.3310
      4 C4         -0.7796    2.2988   -3.5153 C.ar      1 <0>         0.2292
      5 N1         -2.0899    2.4830   -3.3879 N.ar      1 <0>        -0.6032
      6 C5         -2.6999    2.2347   -2.2412 C.ar      1 <0>         0.5642
      7 O1         -4.0351    2.4351   -2.1528 O.3       1 <0>        -0.6954
      8 N2         -2.0458    1.7904   -1.1769 N.ar      1 <0>        -0.5970
      9 S1          0.0287    2.6316   -5.0451 S.3       1 <0>        -0.0954
     10 C6         -1.3082    3.1939   -6.1346 C.3       1 <0>        -0.1278
     11 C7          1.4055    1.6118   -2.4894 C.2       1 <0>         0.6046
     12 O2          1.8367    0.5269   -2.8308 O.2       1 <0>        -0.5271
     13 N3          2.2579    2.6123   -2.1915 N.am      1 <0>        -0.7018
     14 C8          3.7038    2.3933   -2.2788 C.3       1 <0>         0.1338
     15 C9          4.0753    2.0055   -3.7115 C.3       1 <0>        -0.1373
     16 C10         4.4386    3.6781   -1.8914 C.3       1 <0>        -0.1342
     17 C11         5.2910    4.3559   -2.9661 C.3       1 <0>        -0.1971
     18 C12         5.9652    3.6206   -1.8061 C.3       1 <0>        -0.1567
     19 C13         4.1015    1.2843   -1.3392 C.2       1 <0>         0.5071
     20 O3          3.2556    0.7284   -0.6595 O.co2     1 <0>        -0.6682
     21 O4          5.2692    0.9429   -1.2586 O.co2     1 <0>        -0.7061
     22 H1          0.0021   -0.0041    0.0020 H         1 <0>         0.0742
     23 H2          1.0099    1.4631    0.0003 H         1 <0>         0.0947
     24 H3         -0.5229    1.4373    0.9048 H         1 <0>         0.0631
     25 H4         -0.9012    3.4272   -7.1186 H         1 <0>         0.0904
     26 H5         -2.0561    2.4066   -6.2281 H         1 <0>         0.0806
     27 H6         -1.7705    4.0859   -5.7119 H         1 <0>         0.0803
     28 H7          1.9140    3.4775   -1.9193 H         1 <0>         0.3819
     29 H8          3.7876    2.8077   -4.3912 H         1 <0>         0.0397
     30 H9          5.1510    1.8425   -3.7765 H         1 <0>         0.0542
     31 H10         3.5518    1.0902   -3.9876 H         1 <0>         0.0693
     32 H11         3.9187    4.3211   -1.1812 H         1 <0>         0.0925
     33 H12         5.3283    3.8865   -3.9491 H         1 <0>         0.0960
     34 H13         5.3319    5.4452   -2.9632 H         1 <0>         0.0782
     35 H14         6.4496    4.2260   -1.0400 H         1 <0>         0.0769
     36 H15         6.4460    2.6674   -2.0259 H         1 <0>         0.1174
@<TRIPOS>BOND
     1    1   22 1
     2    1   23 1
     3    1   24 1
     4    1    2 1
     5    2    8 ar
     6    2    3 ar
     7    3   11 1
     8    3    4 ar
     9    4    9 1
    10    4    5 ar
    11    5    6 ar
    12    6    7 1
    13    6    8 ar
    14    9   10 1
    15   10   25 1
    16   10   26 1
    17   10   27 1
    18   11   12 2
    19   11   13 am
    20   13   14 1
    21   13   28 1
    22   14   15 1
    23   14   16 1
    24   14   19 1
    25   15   29 1
    26   15   30 1
    27   15   31 1
    28   16   18 1
    29   16   17 1
    30   16   32 1
    31   17   18 1
    32   17   33 1
    33   17   34 1
    34   18   35 1
    35   18   36 1
    36   19   20 2
    37   19   21 1
@<TRIPOS>MOLECULE
ZINC35383524
   35    35     0     0     0
SMALL
USER_CHARGES

@<TRIPOS>ATOM
      1 C1          0.5578    1.5116   -0.1485 C.3       1 <0>        -0.1711
      2 C2          0.5861    0.0049   -0.1612 C.2       1 <0>         0.5092
      3 O1          1.1362   -0.5988    0.7353 O.2       1 <0>        -0.5213
      4 N1          0.0001   -0.6716   -1.1688 N.am      1 <0>        -0.6744
      5 C3          0.1084   -2.0604   -1.2319 C.ar      1 <0>         0.1639
      6 C4          0.1178   -2.8098   -0.0597 C.ar      1 <0>        -0.1315
      7 C5          0.2246   -4.1811   -0.1185 C.ar      1 <0>        -0.0387
      8 C6          0.3232   -4.8203   -1.3574 C.ar      1 <0>        -0.1462
      9 C7          0.3130   -4.0645   -2.5328 C.ar      1 <0>        -0.0636
     10 C8          0.2011   -2.6939   -2.4671 C.ar      1 <0>        -0.1522
     11 C9          0.4383   -6.2902   -1.4241 C.2       1 <0>         0.5603
     12 O2          0.4475   -6.9464   -0.4006 O.2       1 <0>        -0.5396
     13 N2          0.5333   -6.9051   -2.6197 N.am      1 <0>        -0.7106
     14 C10         0.6476   -8.3641   -2.6860 C.3       1 <0>         0.0998
     15 C11         0.7385   -8.7959   -4.1269 C.2       1 <0>         0.4978
     16 O3          0.7105   -7.9666   -5.0114 O.2       1 <0>        -0.5612
     17 N3          0.8508  -10.1037   -4.4327 N.am      1 <0>        -0.6901
     18 C12         0.9391  -10.5235   -5.8335 C.3       1 <0>         0.0500
     19 C13         1.0567  -12.0244   -5.9016 C.2       1 <0>         0.4900
     20 O4          1.0659  -12.6824   -4.8753 O.co2     1 <0>        -0.6901
     21 O5          1.1426  -12.5806   -6.9832 O.co2     1 <0>        -0.6870
     22 H1          1.4329    1.8959   -0.6725 H         1 <0>         0.0987
     23 H2         -0.3465    1.8622   -0.6459 H         1 <0>         0.0833
     24 H3          0.5665    1.8665    0.8821 H         1 <0>         0.0979
     25 H4         -0.4971   -0.1925   -1.8501 H         1 <0>         0.4135
     26 H5          0.0415   -2.3152    0.8973 H         1 <0>         0.1444
     27 H6          0.2325   -4.7622    0.7918 H         1 <0>         0.1410
     28 H7          0.3894   -4.5554   -3.4918 H         1 <0>         0.1350
     29 H8          0.1894   -2.1096   -3.3753 H         1 <0>         0.1329
     30 H9          0.5261   -6.3816   -3.4363 H         1 <0>         0.4105
     31 H10         1.5440   -8.6829   -2.1539 H         1 <0>         0.1006
     32 H11        -0.2294   -8.8186   -2.2251 H         1 <0>         0.1007
     33 H12         0.8732  -10.7670   -3.7253 H         1 <0>         0.4118
     34 H13         0.0428  -10.2047   -6.3655 H         1 <0>         0.0682
     35 H14         1.8162  -10.0691   -6.2943 H         1 <0>         0.0682
@<TRIPOS>BOND
     1    1    2 1
     2    1   22 1
     3    1   23 1
     4    1   24 1
     5    2    3 2
     6    2    4 am
     7    4    5 1
     8    4   25 1
     9    5   10 ar
    10    5    6 ar
    11    6    7 ar
    12    6   26 1
    13    7    8 ar
    14    7   27 1
    15    8    9 ar
    16    8   11 1
    17    9   10 ar
    18    9   28 1
    19   10   29 1
    20   11   12 2
    21   11   13 am
    22   13   14 1
    23   13   30 1
    24   14   15 1
    25   14   31 1
    26   14   32 1
    27   15   16 2
    28   15   17 am
    29   17   18 1
    30   17   33 1
    31   18   19 1
    32   18   34 1
    33   18   35 1
    34   19   20 2
    35   19   21 1
@<TRIPOS>MOLECULE
ZINC39569530
   21    22     0     0     0
SMALL
USER_CHARGES

@<TRIPOS>ATOM
      1 C1         -0.0002    1.7578   -0.2036 C.2       1 <0>        -0.3973
      2 C2          1.1107    2.4457    0.0259 C.2       1 <0>         0.4658
      3 N1          2.3350    1.8511    0.2801 N.pl3     1 <0>        -0.5303
      4 N2          2.6627    0.5496   -0.0788 N.am      1 <0>        -0.4967
      5 C3          1.7381   -0.3942   -0.3181 C.2       1 <0>         0.5125
      6 S1          0.0236   -0.0041   -0.2001 S.3       1 <0>        -0.0059
      7 O1          2.0848   -1.5213   -0.6175 O.2       1 <0>        -0.5063
      8 N3          1.0419    3.8404    0.0097 N.pl3     1 <0>        -0.6242
      9 C4          2.1951    4.5883    0.1066 C.2       1 <0>         0.2373
     10 N4          3.3710    4.0081    0.0910 N.2       1 <0>        -0.3042
     11 N5          4.5691    4.6982    0.1769 N.2       1 <0>        -0.4669
     12 C5          4.7493    5.8770    0.6460 C.2       1 <0>         0.3886
     13 C6          3.6297    6.7237    1.1938 C.3       1 <0>        -0.1139
     14 S2          2.1177    6.3488    0.2470 S.3       1 <0>        -0.1543
     15 O2          6.0049    6.3859    0.6490 O.3       1 <0>        -0.6839
     16 H1         -0.9264    2.2812   -0.3894 H         1 <0>         0.1605
     17 H2          0.1822    4.2826   -0.0697 H         1 <0>         0.4297
     18 H3          3.4748    6.4911    2.2474 H         1 <0>         0.0951
     19 H4          3.8788    7.7790    1.0827 H         1 <0>         0.1267
     20 H5          3.0082    2.3780    0.7385 H         1 <0>         0.4421
     21 H6          3.5997    0.3125   -0.1602 H         1 <0>         0.4255
@<TRIPOS>BOND
     1    1    6 1
     2    1    2 2
     3    1   16 1
     4    2    3 1
     5    2    8 1
     6    3    4 1
     7    3   20 1
     8    4    5 am
     9    4   21 1
    10    5    6 1
    11    5    7 2
    12    8    9 1
    13    8   17 1
    14    9   14 1
    15    9   10 2
    16   10   11 1
    17   11   12 2
    18   12   13 1
    19   12   15 1
    20   13   14 1
    21   13   18 1
    22   13   19 1
@<TRIPOS>MOLECULE
ZINC42439521
   45    45     0     0     0
SMALL
USER_CHARGES

@<TRIPOS>ATOM
      1 C1          0.1066    1.4331   -0.2513 C.3       1 <0>        -0.1607
      2 C2          0.1770   -0.0950   -0.2773 C.3       1 <0>         0.1526
      3 H1          0.7552   -0.4195   -1.1425 H         1 <0>         0.1025
      4 C3         -1.2393   -0.6730   -0.3601 C.3       1 <0>        -0.1305
      5 C4         -2.0027   -0.3273    0.9206 C.3       1 <0>        -0.0960
      6 C5         -1.2945   -0.9546    2.1236 C.3       1 <0>        -0.1277
      7 H2         -1.2392   -2.0350    1.9904 H         1 <0>         0.1078
      8 C6          0.1211   -0.3798    2.2345 C.3       1 <0>         0.1289
      9 N1          0.8174   -0.5796    0.9530 N.am      1 <0>        -0.6284
     10 C7          2.0151   -1.1960    0.9068 C.2       1 <0>         0.7151
     11 O1          2.5355   -1.4337   -0.1661 O.2       1 <0>        -0.5854
     12 N2          2.6359   -1.5490    2.0498 N.am      1 <0>        -0.7088
     13 C8          3.9846   -2.1193    2.0049 C.3       1 <0>         0.0925
     14 H3          4.5489   -1.6544    1.1966 H         1 <0>         0.0829
     15 C9          4.6926   -1.8598    3.3362 C.3       1 <0>        -0.1034
     16 C10         4.8455   -0.3521    3.5471 C.3       1 <0>        -0.0963
     17 C11         5.4252   -0.0879    4.9382 C.3       1 <0>        -0.1443
     18 C12         5.7876    0.2185    2.4852 C.3       1 <0>        -0.1460
     19 C13         3.8943   -3.6043    1.7651 C.2       1 <0>         0.4886
     20 O2          2.8044   -4.1370    1.6430 O.co2     1 <0>        -0.6865
     21 O3          4.9111   -4.2732    1.6932 O.co2     1 <0>        -0.7018
     22 C14        -2.0651   -0.6415    3.3803 C.2       1 <0>         0.5277
     23 O4         -3.0809    0.0185    3.3202 O.2       1 <0>        -0.5443
     24 N3         -1.6255   -1.0948    4.5709 N.am      1 <0>        -0.8551
     25 H4          1.1149    1.8422   -0.1873 H         1 <0>         0.0569
     26 H5         -0.3733    1.7903   -1.1624 H         1 <0>         0.0644
     27 H6         -0.4719    1.7555    0.6145 H         1 <0>         0.0570
     28 H7         -1.7571   -0.2456   -1.2188 H         1 <0>         0.0768
     29 H8         -1.1845   -1.7560   -0.4698 H         1 <0>         0.0706
     30 H9         -2.0358    0.7553    1.0426 H         1 <0>         0.0729
     31 H10        -3.0187   -0.7163    0.8539 H         1 <0>         0.0705
     32 H11         0.0665    0.6856    2.4579 H         1 <0>         0.0693
     33 H12         0.6632   -0.8943    3.0279 H         1 <0>         0.0786
     34 H13         2.1897   -1.4254    2.9022 H         1 <0>         0.3813
     35 H14         4.1030   -2.2825    4.1497 H         1 <0>         0.0572
     36 H15         5.6776   -2.3262    3.3208 H         1 <0>         0.0818
     37 H16         3.8702    0.1273    3.4629 H         1 <0>         0.0642
     38 H17         6.4363   -0.4915    4.9931 H         1 <0>         0.0535
     39 H18         5.4522    0.9860    5.1226 H         1 <0>         0.0478
     40 H19         4.8002   -0.5701    5.6898 H         1 <0>         0.0512
     41 H20         5.3746    0.0303    1.4942 H         1 <0>         0.0584
     42 H21         5.8965    1.2926    2.6354 H         1 <0>         0.0456
     43 H22         6.7629   -0.2609    2.5694 H         1 <0>         0.0540
     44 H23        -0.8130   -1.6226    4.6189 H         1 <0>         0.4045
     45 H24        -2.1214   -0.8933    5.3798 H         1 <0>         0.4003
@<TRIPOS>BOND
     1    1    2 1
     2    1   25 1
     3    1   26 1
     4    1   27 1
     5    2    3 1
     6    2    9 1
     7    2    4 1
     8    4    5 1
     9    4   28 1
    10    4   29 1
    11    5    6 1
    12    5   30 1
    13    5   31 1
    14    6    7 1
    15    6    8 1
    16    6   22 1
    17    8    9 1
    18    8   32 1
    19    8   33 1
    20    9   10 am
    21   10   11 2
    22   10   12 am
    23   12   13 1
    24   12   34 1
    25   13   14 1
    26   13   15 1
    27   13   19 1
    28   15   16 1
    29   15   35 1
    30   15   36 1
    31   16   17 1
    32   16   18 1
    33   16   37 1
    34   17   38 1
    35   17   39 1
    36   17   40 1
    37   18   41 1
    38   18   42 1
    39   18   43 1
    40   19   20 2
    41   19   21 1
    42   22   23 2
    43   22   24 am
    44   24   44 1
    45   24   45 1
@<TRIPOS>MOLECULE
ZINC49571485
   34    34     0     0     0
SMALL
USER_CHARGES

@<TRIPOS>ATOM
      1 C1         -0.2982    1.0428   -1.7490 C.3       1 <0>         0.0273
      2 O1         -0.1851   -0.2585   -1.1695 O.3       1 <0>        -0.3133
      3 C2         -1.2947   -0.7654   -0.5689 C.ar      1 <0>         0.1213
      4 C3         -2.4678   -0.0289   -0.5432 C.ar      1 <0>        -0.2238
      5 C4         -3.5967   -0.5468    0.0683 C.ar      1 <0>         0.1117
      6 C5         -3.5560   -1.8002    0.6553 C.ar      1 <0>        -0.1630
      7 C6         -2.3884   -2.5394    0.6327 C.ar      1 <0>        -0.0693
      8 C7         -1.2558   -2.0285    0.0166 C.ar      1 <0>         0.1404
      9 N1         -0.0716   -2.7800   -0.0117 N.am      1 <0>        -0.6744
     10 C8         -0.1237   -4.1234    0.0833 C.2       1 <0>         0.7080
     11 O2         -1.1989   -4.6912    0.0903 O.2       1 <0>        -0.5755
     12 N2          1.0161   -4.8375    0.1706 N.am      1 <0>        -0.7230
     13 C9          0.9595   -6.2977    0.2738 C.3       1 <0>         0.1185
     14 C10         2.3592   -6.8500    0.3577 C.2       1 <0>         0.4971
     15 O3          3.3103   -6.0978    0.3335 O.2       1 <0>        -0.5602
     16 N3          2.5540   -8.1797    0.4595 N.am      1 <0>        -0.6896
     17 C11         3.9147   -8.7165    0.5410 C.3       1 <0>         0.0501
     18 C12         3.8565  -10.2187    0.6472 C.2       1 <0>         0.4899
     19 O4          2.7784  -10.7880    0.6542 O.co2     1 <0>        -0.6901
     20 O5          4.8875  -10.8646    0.7261 O.co2     1 <0>        -0.6867
     21 F1         -4.7401    0.1723    0.0928 F         1 <0>        -0.1392
     22 H1          0.6556    1.3268   -2.1935 H         1 <0>         0.1034
     23 H2         -1.0691    1.0316   -2.5196 H         1 <0>         0.0576
     24 H3         -0.5676    1.7626   -0.9761 H         1 <0>         0.0575
     25 H4         -2.5016    0.9492   -0.9998 H         1 <0>         0.1432
     26 H5         -4.4383   -2.2009    1.1322 H         1 <0>         0.1409
     27 H6         -2.3592   -3.5168    1.0913 H         1 <0>         0.1673
     28 H7          0.7846   -2.3328   -0.0997 H         1 <0>         0.4139
     29 H8          1.8738   -4.3845    0.1650 H         1 <0>         0.4103
     30 H9          0.4044   -6.5774    1.1692 H         1 <0>         0.1008
     31 H10         0.4602   -6.7051   -0.6053 H         1 <0>         0.1004
     32 H11         1.7933   -8.7812    0.4788 H         1 <0>         0.4119
     33 H12         4.4698   -8.4368   -0.3544 H         1 <0>         0.0682
     34 H13         4.4139   -8.3092    1.4201 H         1 <0>         0.0683
@<TRIPOS>BOND
     1    1    2 1
     2    1   22 1
     3    1   23 1
     4    1   24 1
     5    2    3 1
     6    3    8 ar
     7    3    4 ar
     8    4    5 ar
     9    4   25 1
    10    5    6 ar
    11    5   21 1
    12    6    7 ar
    13    6   26 1
    14    7    8 ar
    15    7   27 1
    16    8    9 1
    17    9   10 am
    18    9   28 1
    19   10   11 2
    20   10   12 am
    21   12   13 1
    22   12   29 1
    23   13   14 1
    24   13   30 1
    25   13   31 1
    26   14   15 2
    27   14   16 am
    28   16   17 1
    29   16   32 1
    30   17   18 1
    31   17   33 1
    32   17   34 1
    33   18   19 2
    34   18   20 1
@<TRIPOS>MOLECULE
ZINC61568734
   37    37     0     0     0
SMALL
USER_CHARGES

@<TRIPOS>ATOM
      1 C1         -1.2670    1.1822    0.1825 C.3       1 <0>        -0.1156
      2 C2         -0.5855   -0.1584    0.0850 C.ar      1 <0>        -0.0746
      3 C3         -0.5719   -0.8406   -1.1159 C.ar      1 <0>        -0.1359
      4 C4          0.0552   -2.0744   -1.2058 C.ar      1 <0>         0.1113
      5 C5          0.6688   -2.6243   -0.0897 C.ar      1 <0>        -0.1940
      6 C6          0.6555   -1.9436    1.1115 C.ar      1 <0>        -0.0749
      7 C7          0.0336   -0.7053    1.2006 C.ar      1 <0>         0.1307
      8 N1          0.0251   -0.0110    2.4180 N.am      1 <0>        -0.6826
      9 C8         -0.0564   -0.6890    3.5799 C.2       1 <0>         0.7066
     10 O1         -0.0401   -1.9048    3.5768 O.2       1 <0>        -0.5769
     11 N2         -0.1560   -0.0194    4.7453 N.am      1 <0>        -0.7255
     12 C9         -0.2446   -0.7564    6.0083 C.3       1 <0>         0.1191
     13 C10        -0.3466    0.2186    7.1529 C.2       1 <0>         0.4975
     14 O2         -0.3455    1.4117    6.9350 O.2       1 <0>        -0.5606
     15 N3         -0.4392   -0.2352    8.4185 N.am      1 <0>        -0.6898
     16 C11        -0.5384    0.7127    9.5312 C.3       1 <0>         0.0501
     17 C12        -0.6295   -0.0454   10.8304 C.2       1 <0>         0.4899
     18 O3         -0.6131   -1.2645   10.8272 O.co2     1 <0>        -0.6903
     19 O4         -0.7196    0.5603   11.8846 O.co2     1 <0>        -0.6866
     20 O5          0.0683   -2.7455   -2.3884 O.3       1 <0>        -0.3201
     21 C13         0.7321   -4.0108   -2.4090 C.3       1 <0>         0.0275
     22 H1         -0.5526    1.9709   -0.0533 H         1 <0>         0.0737
     23 H2         -2.0965    1.2203   -0.5235 H         1 <0>         0.0727
     24 H3         -1.6447    1.3249    1.1950 H         1 <0>         0.0678
     25 H4         -1.0499   -0.4133   -1.9850 H         1 <0>         0.1327
     26 H5          1.1566   -3.5853   -0.1603 H         1 <0>         0.1297
     27 H6          1.1328   -2.3720    1.9805 H         1 <0>         0.1464
     28 H7          0.0779    0.9576    2.4243 H         1 <0>         0.4073
     29 H8         -0.1691    0.9505    4.7478 H         1 <0>         0.4090
     30 H9         -1.1279   -1.3950    5.9952 H         1 <0>         0.0994
     31 H10         0.6465   -1.3715    6.1334 H         1 <0>         0.0993
     32 H11        -0.4401   -1.1894    8.5928 H         1 <0>         0.4118
     33 H12         0.3449    1.3513    9.5443 H         1 <0>         0.0682
     34 H13        -1.4295    1.3278    9.4061 H         1 <0>         0.0682
     35 H14         1.7790   -3.8763   -2.1370 H         1 <0>         0.0548
     36 H15         0.2549   -4.6831   -1.6960 H         1 <0>         0.0556
     37 H16         0.6687   -4.4381   -3.4097 H         1 <0>         0.0979
@<TRIPOS>BOND
     1    1    2 1
     2    1   22 1
     3    1   23 1
     4    1   24 1
     5    2    7 ar
     6    2    3 ar
     7    3    4 ar
     8    3   25 1
     9    4    5 ar
    10    4   20 1
    11    5    6 ar
    12    5   26 1
    13    6    7 ar
    14    6   27 1
    15    7    8 1
    16    8    9 am
    17    8   28 1
    18    9   10 2
    19    9   11 am
    20   11   12 1
    21   11   29 1
    22   12   13 1
    23   12   30 1
    24   12   31 1
    25   13   14 2
    26   13   15 am
    27   15   16 1
    28   15   32 1
    29   16   17 1
    30   16   33 1
    31   16   34 1
    32   17   18 2
    33   17   19 1
    34   20   21 1
    35   21   35 1
    36   21   36 1
    37   21   37 1
@<TRIPOS>MOLECULE
ZINC02043255
   18    17     0     0     0
SMALL
USER_CHARGES
2-acetylsulfanylbutanedioic acid
@<TRIPOS>ATOM
      1 C1         -4.0659   -2.1757    2.2766 C.3       1 <0>        -0.1589
      2 C2         -3.7042   -1.1388    1.2446 C.2       1 <0>         0.2903
      3 O1         -4.3027   -1.0980    0.1900 O.2       1 <0>        -0.4443
      4 S1         -2.4487   -0.0186    1.5602 S.3       1 <0>        -0.0937
      5 C3         -2.4788    0.9298    0.0189 C.3       1 <0>        -0.0763
      6 H1         -2.3667    0.2518   -0.8272 H         1 <0>         0.0888
      7 C4         -1.3295    1.9397    0.0189 C.3       1 <0>        -0.1266
      8 C5         -0.0143    1.2041    0.0087 C.2       1 <0>         0.4614
      9 O2          0.0021   -0.0041    0.0020 O.co2     1 <0>        -0.6279
     10 C6         -3.7910    1.6621   -0.0948 C.2       1 <0>         0.4743
     11 O3         -4.6036    1.3211   -0.9214 O.co2     1 <0>        -0.6235
     12 H2         -3.4782   -2.0672    3.0783 H         1 <0>         0.0696
     13 H3         -5.1079   -2.0482    2.5700 H         1 <0>         0.0836
     14 H4         -3.9262   -3.1714    1.8558 H         1 <0>         0.0834
     15 H5         -1.3915    2.5607    0.9126 H         1 <0>         0.0786
     16 H6         -1.4000    2.5704   -0.8673 H         1 <0>         0.0733
     17 O4          1.1389    1.8910    0.0013 O.co2     1 <0>        -0.7891
     18 O5         -4.0571    2.6932    0.7224 O.co2     1 <0>        -0.7630
@<TRIPOS>BOND
     1    1    2 1
     2    1   12 1
     3    1   13 1
     4    1   14 1
     5    2    3 2
     6    2    4 1
     7    4    5 1
     8    5    6 1
     9    5    7 1
    10    5   10 1
    11    7    8 1
    12    7   15 1
    13    7   16 1
    14    8    9 2
    15    8   17 1
    16   10   11 2
    17   10   18 1
@<TRIPOS>MOLECULE
ZINC20436142
   21    22     0     0     0
SMALL
USER_CHARGES
2-(6-chloro-5-methyl-7-oxo-4H-[1,2,4]triazolo[1,5-a]pyrimidin-2-yl)acetic acid
@<TRIPOS>ATOM
      1 C1          2.4560    1.6977   -0.0123 C.3       1 <0>        -0.0967
      2 C2          1.1381    2.4284    0.0042 C.2       1 <0>         0.2292
      3 C3         -0.0215    1.7317    0.0116 C.2       1 <0>        -0.3341
      4 C4         -1.2509    2.4255    0.0211 C.2       1 <0>         0.5627
      5 O1         -2.3018    1.8093    0.0231 O.3       1 <0>        -0.5558
      6 N1         -1.2559    3.7701    0.0333 N.pl3     1 <0>        -0.4074
      7 C5         -0.0855    4.4644    0.0259 C.2       1 <0>         0.4658
      8 N2          1.1145    3.7924    0.0113 N.2       1 <0>        -0.5791
      9 N3         -0.3860    5.7469    0.0352 N.2       1 <0>        -0.5806
     10 C6         -1.7093    5.8999    0.0483 C.2       1 <0>         0.2434
     11 N4         -2.2825    4.7244    0.0477 N.2       1 <0>        -0.2546
     12 C7         -2.4330    7.2217    0.0621 C.3       1 <0>        -0.0655
     13 C8         -3.9204    6.9798    0.0747 C.2       1 <0>         0.4565
     14 O2         -4.3488    5.8501    0.0726 O.co2     1 <0>        -0.5928
     15 O3         -4.7693    8.0195    0.0882 O.co2     1 <0>        -0.7910
     16 Cl1         0.0021   -0.0041    0.0020 Cl        1 <0>        -0.0899
     17 H1          2.2738    0.6129   -0.0160 H         1 <0>         0.0751
     18 H2          3.0368    1.9689    0.8816 H         1 <0>         0.0712
     19 H3          3.0193    1.9780   -0.9146 H         1 <0>         0.0712
     20 H4         -2.1459    7.7875    0.9606 H         1 <0>         0.0861
     21 H5         -2.1626    7.7972   -0.8355 H         1 <0>         0.0862
@<TRIPOS>BOND
     1    1    2 1
     2    1   17 1
     3    1   18 1
     4    1   19 1
     5    2    8 2
     6    2    3 1
     7    3    4 2
     8    3   16 1
     9    4    5 1
    10    4    6 1
    11    6   11 1
    12    6    7 1
    13    7    8 1
    14    7    9 2
    15    9   10 1
    16   10   11 2
    17   10   12 1
    18   12   13 1
    19   12   20 1
    20   12   21 1
    21   13   14 2
    22   13   15 1
@<TRIPOS>MOLECULE
ZINC39909959
   29    30     0     0     0
SMALL
USER_CHARGES

@<TRIPOS>ATOM
      1 C1         -0.0178    1.4592    0.0101 C.2       1 <0>        -0.2072
      2 C2          1.2319    1.9202    0.0006 C.2       1 <0>        -0.1201
      3 C3          2.1251    0.6993   -0.0145 C.3       1 <0>         0.0443
      4 H1          2.7564    0.6826    0.8739 H         1 <0>         0.1686
      5 N1          1.2133   -0.4519   -0.0120 N.2       1 <0>        -0.4597
      6 C4          0.0021   -0.0041    0.0020 C.2       1 <0>         0.1215
      7 C5          2.9758    0.6906   -1.2583 C.2       1 <0>         0.0000
      8 C6          4.3074    0.6038   -1.1576 C.2       1 <0>        -0.1609
      9 C7          5.1604    0.5010    0.0528 C.2       1 <0>         0.5489
     10 O1          4.6853    0.4848    1.1720 O.2       1 <0>        -0.4538
     11 N2          6.4650    0.4277   -0.1515 N.am      1 <0>        -0.4675
     12 C8          6.9870    0.4456   -1.3944 C.2       1 <0>         0.2699
     13 S1          8.6335    0.3608   -1.8556 S.2       1 <0>        -0.2279
     14 S2          5.5482    0.5717   -2.4441 S.3       1 <0>        -0.0388
     15 C9          7.3645    0.3249    1.0003 C.3       1 <0>         0.0752
     16 H2          6.7789    0.3244    1.9196 H         1 <0>         0.1029
     17 C10         8.3230    1.5173    1.0068 C.3       1 <0>        -0.1985
     18 C11         7.5424    2.7882    1.2227 C.2       1 <0>         0.4919
     19 O2          6.3316    2.7442    1.3588 O.co2     1 <0>        -0.6937
     20 O3          8.1217    3.8603    1.2613 O.co2     1 <0>        -0.7147
     21 C12         8.1551   -0.9547    0.9076 C.2       1 <0>         0.4959
     22 O4          8.4253   -1.4267   -0.1836 O.co2     1 <0>        -0.6559
     23 O5          8.5246   -1.5180    1.9238 O.co2     1 <0>        -0.6917
     24 H3         -0.9079    2.0706    0.0259 H         1 <0>         0.1392
     25 H4          1.5437    2.9542    0.0029 H         1 <0>         0.1572
     26 H5         -0.8799   -0.6273    0.0071 H         1 <0>         0.1691
     27 H6          2.5109    0.7545   -2.2310 H         1 <0>         0.1397
     28 H7          9.0488    1.3957    1.8109 H         1 <0>         0.0728
     29 H8          8.8448    1.5693    0.0512 H         1 <0>         0.0934
@<TRIPOS>BOND
     1    1    6 1
     2    1    2 2
     3    1   24 1
     4    2    3 1
     5    2   25 1
     6    3    4 1
     7    3    5 1
     8    3    7 1
     9    5    6 2
    10    6   26 1
    11    7    8 2
    12    7   27 1
    13    8   14 1
    14    8    9 1
    15    9   10 2
    16    9   11 am
    17   11   12 1
    18   11   15 1
    19   12   13 2
    20   12   14 1
    21   15   16 1
    22   15   17 1
    23   15   21 1
    24   17   18 1
    25   17   28 1
    26   17   29 1
    27   18   19 2
    28   18   20 1
    29   21   22 2
    30   21   23 1
@<TRIPOS>MOLECULE
ZINC20849629
   27    28     0     0     0
SMALL
USER_CHARGES

@<TRIPOS>ATOM
      1 C1         -0.0397    1.3792   -0.2083 C.ar      1 <0>        -0.1765
      2 C2         -0.0199   -0.0039   -0.2068 C.ar      1 <0>        -0.0948
      3 C3         -1.2214   -0.6756    0.0286 C.ar      1 <0>         0.2123
      4 N1         -2.3307    0.0140    0.2408 N.ar      1 <0>        -0.2444
      5 N2         -2.3485    1.2974    0.2393 N.ar      1 <0>        -0.3066
      6 C4         -1.2583    2.0170    0.0308 C.ar      1 <0>         0.2994
      7 N3         -1.3282    3.4089    0.0392 N.pl3     1 <0>        -0.6089
      8 C5         -2.6282    4.0929    0.0675 C.3       1 <0>         0.1298
      9 C6         -2.6414    5.0782    1.2405 C.3       1 <0>        -0.1059
     10 C7         -1.4390    6.0180    1.1257 C.3       1 <0>        -0.1510
     11 C8         -0.1448    5.2039    1.1932 C.3       1 <0>        -0.1072
     12 C9         -0.1032    4.2200    0.0259 C.3       1 <0>         0.1292
     13 C10        -1.4675    7.0105    2.2593 C.2       1 <0>         0.4966
     14 O1         -0.4247    7.4647    2.6983 O.co2     1 <0>        -0.7053
     15 O2         -2.5334    7.3595    2.7374 O.co2     1 <0>        -0.7024
     16 S1         -1.2603   -2.4371    0.0423 S.3       1 <0>        -0.8999
     17 H1          0.8611    1.9484   -0.3846 H         1 <0>         0.1302
     18 H2          0.8965   -0.5477   -0.3826 H         1 <0>         0.1331
     19 H3         -2.7764    4.6348   -0.8666 H         1 <0>         0.0465
     20 H4         -3.4242    3.3597    0.1972 H         1 <0>         0.0872
     21 H5         -3.5622    5.6609    1.2158 H         1 <0>         0.0712
     22 H6         -2.5841    4.5271    2.1792 H         1 <0>         0.0554
     23 H7         -1.4838    6.5506    0.1757 H         1 <0>         0.0595
     24 H8          0.7113    5.8761    1.1349 H         1 <0>         0.0729
     25 H9         -0.1111    4.6516    2.1324 H         1 <0>         0.0553
     26 H10         0.7662    3.5706    0.1282 H         1 <0>         0.0713
     27 H11        -0.0409    4.7725   -0.9116 H         1 <0>         0.0530
@<TRIPOS>BOND
     1    1    2 ar
     2    1   17 1
     3    1    6 ar
     4    2    3 ar
     5    2   18 1
     6    3   16 1
     7    3    4 ar
     8    4    5 ar
     9    5    6 ar
    10    6    7 1
    11    7   12 1
    12    7    8 1
    13    8    9 1
    14    8   19 1
    15    8   20 1
    16    9   10 1
    17    9   21 1
    18    9   22 1
    19   10   11 1
    20   10   13 1
    21   10   23 1
    22   11   12 1
    23   11   24 1
    24   11   25 1
    25   12   26 1
    26   12   27 1
    27   13   14 2
    28   13   15 1
@<TRIPOS>MOLECULE
ZINC62317813
   31    32     0     0     0
SMALL
USER_CHARGES

@<TRIPOS>ATOM
      1 C1         -1.4550   -0.8428   -0.5230 C.3       1 <0>        -0.1346
      2 C2         -0.2876    0.0637   -0.1277 C.3       1 <0>         0.0938
      3 C3         -0.7581    1.5194   -0.1025 C.3       1 <0>        -0.1227
      4 C4          0.2110   -0.3268    1.2398 C.2       1 <0>         0.5022
      5 O1         -0.3986   -1.1522    1.8981 O.co2     1 <0>        -0.6728
      6 O2          1.2240    0.1827    1.6877 O.co2     1 <0>        -0.6732
      7 N1          0.7960   -0.0824   -1.1027 N.pl3     1 <0>        -0.3159
      8 C5          1.3744   -1.2477   -1.5060 C.2       1 <0>         0.1030
      9 C6          2.3499   -0.8961   -2.4358 C.2       1 <0>        -0.0839
     10 N2          2.3365    0.4417   -2.5675 N.2       1 <0>        -0.2248
     11 N3          1.4336    0.9493   -1.8050 N.2       1 <0>        -0.1090
     12 C7          3.2376   -1.8237   -3.1468 C.2       1 <0>         0.5644
     13 O3          3.1556   -3.0277   -2.9417 O.co2     1 <0>        -0.6800
     14 O4          4.0598   -1.3934   -3.9450 O.co2     1 <0>        -0.6838
     15 C8          1.0352   -2.6104   -1.0491 C.ar      1 <0>        -0.0100
     16 C9          1.0932   -2.9289    0.3095 C.ar      1 <0>        -0.0463
     17 C10         0.7750   -4.2025    0.7305 C.ar      1 <0>        -0.1534
     18 C11         0.3980   -5.1663   -0.1919 C.ar      1 <0>         0.0864
     19 C12         0.3386   -4.8557   -1.5416 C.ar      1 <0>        -0.1681
     20 C13         0.6495   -3.5838   -1.9733 C.ar      1 <0>        -0.0172
     21 F1          0.0876   -6.4129    0.2261 F         1 <0>        -0.1541
     22 H1         -1.8156   -0.5604   -1.5121 H         1 <0>         0.0414
     23 H2         -1.1198   -1.8798   -0.5409 H         1 <0>         0.0680
     24 H3         -2.2612   -0.7341    0.2025 H         1 <0>         0.0751
     25 H4         -1.4920    1.6503    0.6926 H         1 <0>         0.0628
     26 H5          0.0946    2.1737    0.0787 H         1 <0>         0.0706
     27 H6         -1.2120    1.7711   -1.0610 H         1 <0>         0.0514
     28 H7          1.3872   -2.1789    1.0289 H         1 <0>         0.1458
     29 H8          0.8199   -4.4500    1.7808 H         1 <0>         0.1282
     30 H9          0.0445   -5.6105   -2.2559 H         1 <0>         0.1272
     31 H10         0.5986   -3.3417   -3.0246 H         1 <0>         0.1293
@<TRIPOS>BOND
     1    1    2 1
     2    1   22 1
     3    1   23 1
     4    1   24 1
     5    2    3 1
     6    2    4 1
     7    2    7 1
     8    3   25 1
     9    3   26 1
    10    3   27 1
    11    4    5 2
    12    4    6 1
    13    7   11 1
    14    7    8 1
    15    8    9 2
    16    8   15 1
    17    9   10 1
    18    9   12 1
    19   10   11 2
    20   12   13 2
    21   12   14 1
    22   15   20 ar
    23   15   16 ar
    24   16   17 ar
    25   16   28 1
    26   17   18 ar
    27   17   29 1
    28   18   19 ar
    29   18   21 1
    30   19   20 ar
    31   19   30 1
    32   20   31 1
@<TRIPOS>MOLECULE
ZINC13251462
   34    35     0     0     0
SMALL
USER_CHARGES
3-[(2R,4R)-2-carbamoyl-4-hydroxy-pyrrolidin-1-yl]sulfonylbenzoic acid
@<TRIPOS>ATOM
      1 C1          0.5063   -7.5154    1.1917 C.ar      1 <0>        -0.1563
      2 C2         -0.6447   -8.0748    0.6761 C.ar      1 <0>        -0.0221
      3 C3         -1.5641   -7.2720   -0.0016 C.ar      1 <0>        -0.1327
      4 C4         -1.3114   -5.9070   -0.1529 C.ar      1 <0>         0.0138
      5 C5         -0.1568   -5.3608    0.3676 C.ar      1 <0>        -0.6971
      6 C6          0.7503   -6.1623    1.0383 C.ar      1 <0>        -0.0310
      7 S1          0.1644   -3.6388    0.1775 S.o2      1 <0>         2.7079
      8 O1         -1.1005   -2.9947    0.1111 O.2       1 <0>        -0.9317
      9 O2          1.1426   -3.2983    1.1503 O.2       1 <0>        -0.9556
     10 N1          0.8779   -3.4343   -1.3029 N.pl3     1 <0>        -0.9916
     11 C7          2.3053   -3.6244   -1.5997 C.3       1 <0>         0.0859
     12 C8          2.5100   -3.2979   -3.0940 C.3       1 <0>         0.0995
     13 H1          2.4898   -4.2077   -3.6939 H         1 <0>         0.0826
     14 C9          1.2908   -2.3963   -3.4229 C.3       1 <0>        -0.1070
     15 C10         0.1860   -3.0376   -2.5428 C.3       1 <0>         0.1287
     16 H2         -0.2366   -3.9120   -3.0377 H         1 <0>         0.1027
     17 C11        -0.8941   -2.0308   -2.2415 C.2       1 <0>         0.5140
     18 O3         -0.7066   -1.1720   -1.4060 O.2       1 <0>        -0.5163
     19 N2         -2.0685   -2.0849   -2.9006 N.am      1 <0>        -0.8445
     20 O4          3.7332   -2.5864   -3.2931 O.3       1 <0>        -0.5551
     21 C12        -2.7984   -7.8641   -0.5568 C.2       1 <0>         0.4901
     22 O5         -3.5963   -7.1632   -1.1464 O.co2     1 <0>        -0.6250
     23 H3          1.2205   -8.1361    1.7124 H         1 <0>         0.1289
     24 H4         -0.8338   -9.1313    0.7963 H         1 <0>         0.1401
     25 H5         -2.0186   -5.2803   -0.6758 H         1 <0>         0.1404
     26 H6          1.6527   -5.7295    1.4442 H         1 <0>         0.1332
     27 H7          2.9042   -2.9503   -0.9874 H         1 <0>         0.0863
     28 H8          2.5908   -4.6575   -1.4011 H         1 <0>         0.0758
     29 H9          1.4783   -1.3634   -3.1294 H         1 <0>         0.0964
     30 H10         1.0322   -2.4591   -4.4799 H         1 <0>         0.0970
     31 H11        -2.2185   -2.7718   -3.5688 H         1 <0>         0.4024
     32 H12        -2.7637   -1.4368   -2.7067 H         1 <0>         0.4062
     33 H13         4.5222   -3.0790   -3.0286 H         1 <0>         0.3833
     34 O6         -3.0391   -9.1813   -0.4092 O.co2     1 <0>        -0.7491
@<TRIPOS>BOND
     1    1    6 ar
     2    1    2 ar
     3    1   23 1
     4    2    3 ar
     5    2   24 1
     6    3    4 ar
     7    3   21 1
     8    4    5 ar
     9    4   25 1
    10    5    6 ar
    11    5    7 1
    12    6   26 1
    13    7    8 2
    14    7    9 2
    15    7   10 1
    16   10   15 1
    17   10   11 1
    18   11   12 1
    19   11   27 1
    20   11   28 1
    21   12   13 1
    22   12   14 1
    23   12   20 1
    24   14   15 1
    25   14   29 1
    26   14   30 1
    27   15   16 1
    28   15   17 1
    29   17   18 2
    30   17   19 am
    31   19   31 1
    32   19   32 1
    33   20   33 1
    34   21   22 2
    35   21   34 1
@<TRIPOS>MOLECULE
ZINC36970790
   37    38     0     0     0
SMALL
USER_CHARGES

@<TRIPOS>ATOM
      1 C1         -0.0071    1.5487    0.0067 C.3       1 <0>        -0.1364
      2 C2          0.0180    0.0189    0.0035 C.3       1 <0>         0.1307
      3 C3          0.7626   -0.4816    1.2429 C.3       1 <0>        -0.1508
      4 C4          0.0185   -1.4399    2.1750 C.3       1 <0>        -0.1771
      5 C5          0.2709    0.0059    2.6072 C.3       1 <0>        -0.1599
      6 C6         -1.3943   -0.5068    0.0195 C.2       1 <0>         0.5091
      7 O1         -1.7925   -1.2124   -0.8915 O.co2     1 <0>        -0.6735
      8 O2         -2.1386   -0.2264    0.9435 O.co2     1 <0>        -0.6935
      9 N1          0.7020   -0.4557   -1.2019 N.am      1 <0>        -0.6880
     10 C7          0.2215   -0.1354   -2.4197 C.2       1 <0>         0.5884
     11 O3         -0.8262    0.4756   -2.5190 O.2       1 <0>        -0.5185
     12 C8          0.9615   -0.5232   -3.6254 C.2       1 <0>        -0.0211
     13 C9          2.1030   -1.2951   -3.6679 C.2       1 <0>        -0.0704
     14 C10         2.4679   -1.4153   -5.0124 C.2       1 <0>        -0.7512
     15 C11         1.5630   -0.7298   -5.7514 C.2       1 <0>         0.1245
     16 N2          0.6393   -0.1876   -4.9209 N.pl3     1 <0>        -0.3945
     17 C12        -0.5093    0.6230   -5.3331 C.3       1 <0>         0.0518
     18 S1          3.8583   -2.3006   -5.6349 S.o2      1 <0>         2.7319
     19 O4          4.1736   -1.7270   -6.8962 O.2       1 <0>        -0.9780
     20 O5          4.8012   -2.3738   -4.5743 O.2       1 <0>        -0.9699
     21 N3          3.3585   -3.8512   -5.9318 N.pl3     1 <0>        -1.2531
     22 H1          1.0143    1.9289   -0.0049 H         1 <0>         0.0382
     23 H2         -0.5376    1.9052   -0.8762 H         1 <0>         0.0631
     24 H3         -0.5161    1.9018    0.9036 H         1 <0>         0.0663
     25 H4          1.8351   -0.6313    1.1185 H         1 <0>         0.0940
     26 H5         -1.0015   -1.7138    1.9053 H         1 <0>         0.1187
     27 H6          0.6014   -2.2204    2.6640 H         1 <0>         0.0774
     28 H7          1.0198    0.1766    3.3805 H         1 <0>         0.0806
     29 H8         -0.5830    0.6832    2.6219 H         1 <0>         0.1067
     30 H9          1.5008   -1.0005   -1.1236 H         1 <0>         0.3882
     31 H10         2.6185   -1.7256   -2.8221 H         1 <0>         0.1585
     32 H11         1.5736   -0.6341   -6.8271 H         1 <0>         0.1862
     33 H12        -0.2013    1.6635   -5.4362 H         1 <0>         0.0807
     34 H13        -0.8863    0.2593   -6.2890 H         1 <0>         0.0856
     35 H14        -1.2947    0.5494   -4.5809 H         1 <0>         0.1210
     36 H15         2.4398   -4.1070   -5.7547 H         1 <0>         0.4176
     37 H16         3.9846   -4.5038   -6.2828 H         1 <0>         0.4164
@<TRIPOS>BOND
     1    1    2 1
     2    1   22 1
     3    1   23 1
     4    1   24 1
     5    2    3 1
     6    2    6 1
     7    2    9 1
     8    3    5 1
     9    3    4 1
    10    3   25 1
    11    4    5 1
    12    4   26 1
    13    4   27 1
    14    5   28 1
    15    5   29 1
    16    6    7 2
    17    6    8 1
    18    9   10 am
    19    9   30 1
    20   10   11 2
    21   10   12 1
    22   12   16 1
    23   12   13 2
    24   13   14 1
    25   13   31 1
    26   14   15 2
    27   14   18 1
    28   15   16 1
    29   15   32 1
    30   16   17 1
    31   17   33 1
    32   17   34 1
    33   17   35 1
    34   18   19 2
    35   18   20 2
    36   18   21 1
    37   21   36 1
    38   21   37 1
@<TRIPOS>MOLECULE
ZINC40534528
   34    34     0     0     0
SMALL
USER_CHARGES

@<TRIPOS>ATOM
      1 C1         -0.0113    1.5146   -0.0065 C.3       1 <0>        -0.1815
      2 C2          0.0074   -0.0153   -0.0042 C.3       1 <0>         0.1125
      3 H1          0.5194   -0.3738   -0.8972 H         1 <0>         0.0503
      4 C3          0.7435   -0.5144    1.2408 C.3       1 <0>         0.0951
      5 H2          0.2315   -0.1560    2.1338 H         1 <0>         0.0899
      6 C4          0.7619   -2.0213    1.2431 C.2       1 <0>         0.4932
      7 O1          1.8079   -2.6185    1.0534 O.co2     1 <0>        -0.6949
      8 O2         -0.2691   -2.6433    1.4346 O.co2     1 <0>        -0.6768
      9 N1          2.1186   -0.0093    1.2304 N.am      1 <0>        -0.6997
     10 C5          2.7943    0.1295    2.3882 C.2       1 <0>         0.7092
     11 O3          2.2627   -0.1646    3.4414 O.2       1 <0>        -0.5715
     12 N2          4.0594    0.5943    2.3786 N.am      1 <0>        -0.6886
     13 C6          4.7284    0.8303    3.5873 C.ar      1 <0>         0.1568
     14 C7          5.6124    1.8955    3.6952 C.ar      1 <0>        -0.1102
     15 C8          6.2720    2.1277    4.8861 C.ar      1 <0>        -0.1798
     16 C9          6.0518    1.2972    5.9748 C.ar      1 <0>         0.1101
     17 C10         5.1680    0.2323    5.8683 C.ar      1 <0>        -0.0461
     18 C11         4.5031    0.0026    4.6787 C.ar      1 <0>        -0.0735
     19 Cl1         4.8931   -0.8072    7.2312 Cl        1 <0>        -0.0557
     20 O4          6.7024    1.5261    7.1470 O.3       1 <0>        -0.3077
     21 C12         7.5977    2.6392    7.1855 C.3       1 <0>         0.0275
     22 O5         -1.3339   -0.5081    0.0060 O.3       1 <0>        -0.5326
     23 H3          1.0118    1.8904   -0.0142 H         1 <0>         0.0606
     24 H4         -0.5358    1.8702   -0.8934 H         1 <0>         0.0532
     25 H5         -0.5234    1.8730    0.8865 H         1 <0>         0.0620
     26 H6          2.5428    0.2254    0.3902 H         1 <0>         0.3878
     27 H7          4.5069    0.7654    1.5352 H         1 <0>         0.4050
     28 H8          5.7846    2.5423    2.8476 H         1 <0>         0.1325
     29 H9          6.9599    2.9562    4.9696 H         1 <0>         0.1373
     30 H10         3.8122   -0.8235    4.5967 H         1 <0>         0.1638
     31 H11         8.3796    2.5026    6.4384 H         1 <0>         0.0546
     32 H12         7.0475    3.5556    6.9722 H         1 <0>         0.0546
     33 H13         8.0491    2.7084    8.1752 H         1 <0>         0.0988
     34 H14        -1.8608   -0.2303   -0.7558 H         1 <0>         0.3639
@<TRIPOS>BOND
     1    1    2 1
     2    1   23 1
     3    1   24 1
     4    1   25 1
     5    2    3 1
     6    2    4 1
     7    2   22 1
     8    4    5 1
     9    4    6 1
    10    4    9 1
    11    6    7 2
    12    6    8 1
    13    9   10 am
    14    9   26 1
    15   10   11 2
    16   10   12 am
    17   12   13 1
    18   12   27 1
    19   13   18 ar
    20   13   14 ar
    21   14   15 ar
    22   14   28 1
    23   15   16 ar
    24   15   29 1
    25   16   17 ar
    26   16   20 1
    27   17   18 ar
    28   17   19 1
    29   18   30 1
    30   20   21 1
    31   21   31 1
    32   21   32 1
    33   21   33 1
    34   22   34 1
@<TRIPOS>MOLECULE
ZINC44884864
   28    29     0     0     0
SMALL
USER_CHARGES

@<TRIPOS>ATOM
      1 C1         -0.0184    1.5028    0.0103 C.3       1 <0>        -0.1052
      2 C2          0.0021   -0.0041    0.0020 C.ar      1 <0>        -0.1840
      3 C3          0.0057   -0.6903   -1.2065 C.ar      1 <0>         0.2340
      4 C4          0.0245   -2.0766   -1.2171 C.ar      1 <0>        -0.1443
      5 C5          0.0397   -2.7794   -0.0122 C.ar      1 <0>        -0.0538
      6 C6          0.0360   -2.0830    1.1971 C.ar      1 <0>        -0.1741
      7 C7          0.0229   -0.7004    1.1980 C.ar      1 <0>         0.1393
      8 F1          0.0248   -0.0275    2.3695 F         1 <0>        -0.1340
      9 C8          0.0593   -4.2580   -0.0164 C.2       1 <0>         0.5556
     10 O1          0.0621   -4.8628   -1.0708 O.2       1 <0>        -0.5424
     11 N1          0.0740   -4.9350    1.1488 N.am      1 <0>        -0.7038
     12 C9          0.0934   -6.3999    1.1447 C.3       1 <0>         0.2393
     13 C10         0.1071   -6.9061    2.5641 C.2       1 <0>         0.0261
     14 N2          1.1778   -7.1519    3.3050 N.2       1 <0>        -0.3713
     15 N3          0.7690   -7.5687    4.4545 N.2       1 <0>        -0.1925
     16 N4         -0.5184   -7.5921    4.4586 N.2       1 <0>        -0.1926
     17 N5         -0.9494   -7.1856    3.3134 N.2       1 <0>        -0.3713
     18 N6         -0.0101    0.0171   -2.4112 N.pl3     1 <0>        -0.8713
     19 H1          1.0042    1.8801    0.0026 H         1 <0>         0.0706
     20 H2         -0.5455    1.8639   -0.8728 H         1 <0>         0.0646
     21 H3         -0.5286    1.8543    0.9071 H         1 <0>         0.0718
     22 H4          0.0270   -2.6110   -2.1556 H         1 <0>         0.1418
     23 H5          0.0474   -2.6238    2.1319 H         1 <0>         0.1378
     24 H6          0.0717   -4.4524    1.9903 H         1 <0>         0.4020
     25 H7         -0.7942   -6.7736    0.6342 H         1 <0>         0.0779
     26 H8          0.9856   -6.7500    0.6255 H         1 <0>         0.0778
     27 H9         -0.0235    0.9869   -2.4040 H         1 <0>         0.3993
     28 H10        -0.0075   -0.4617   -3.2548 H         1 <0>         0.4026
@<TRIPOS>BOND
     1    1    2 1
     2    1   19 1
     3    1   20 1
     4    1   21 1
     5    2    7 ar
     6    2    3 ar
     7    3    4 ar
     8    3   18 1
     9    4    5 ar
    10    4   22 1
    11    5    6 ar
    12    5    9 1
    13    6    7 ar
    14    6   23 1
    15    7    8 1
    16    9   10 2
    17    9   11 am
    18   11   12 1
    19   11   24 1
    20   12   13 1
    21   12   25 1
    22   12   26 1
    23   13   17 2
    24   13   14 1
    25   14   15 1
    26   15   16 2
    27   16   17 1
    28   18   27 1
    29   18   28 1
@<TRIPOS>MOLECULE
ZINC61827855
   41    41     0     0     0
SMALL
USER_CHARGES

@<TRIPOS>ATOM
      1 C1         -0.0187    1.5258    0.0104 C.3       1 <0>        -0.1575
      2 C2          0.0021   -0.0041    0.0020 C.3       1 <0>        -0.0215
      3 C3          0.7421   -0.5109    1.2415 C.3       1 <0>        -0.1582
      4 C4         -1.4333   -0.5336    0.0129 C.3       1 <0>        -0.1299
      5 C5         -2.1387   -0.0476    1.2528 C.2       1 <0>         0.5122
      6 O1         -1.5514    0.6530    2.0490 O.2       1 <0>        -0.4426
      7 N1         -3.4224   -0.3919    1.4765 N.am      1 <0>        -0.6946
      8 C6         -4.0532    0.0427    2.5853 C.2       1 <0>         0.6977
      9 O2         -3.4645    0.7451    3.3835 O.2       1 <0>        -0.5139
     10 N2         -5.3369   -0.3015    2.8090 N.am      1 <0>        -0.7290
     11 C7         -6.0226    0.1709    4.0144 C.3       1 <0>         0.1547
     12 H1         -5.6730    1.1736    4.2603 H         1 <0>         0.1221
     13 C8         -7.5316    0.2068    3.7599 C.3       1 <0>        -0.1296
     14 C9         -8.2437    0.4338    5.0988 C.3       1 <0>        -0.1345
     15 C10        -8.0450   -0.8037    5.9750 C.3       1 <0>         0.1081
     16 N3         -6.6341   -1.1641    6.0364 N.am      1 <0>        -0.7236
     17 C11        -5.7207   -0.7567    5.1561 C.2       1 <0>         0.4973
     18 O3         -4.5830   -1.1565    5.2854 O.2       1 <0>        -0.5223
     19 C12         0.7182   -0.4975   -1.2568 C.3       1 <0>        -0.1748
     20 C13         2.1320    0.0241   -1.2675 C.2       1 <0>         0.4942
     21 O4          2.5300    0.7255   -0.3530 O.co2     1 <0>        -0.6800
     22 O5          2.8779   -0.2552   -2.1906 O.co2     1 <0>        -0.7101
     23 H2          1.0039    1.9031    0.0027 H         1 <0>         0.0964
     24 H3         -0.5459    1.8868   -0.8726 H         1 <0>         0.0242
     25 H4         -0.5289    1.8773    0.9072 H         1 <0>         0.0596
     26 H5          0.2319   -0.1594    2.1383 H         1 <0>         0.0600
     27 H6          0.7568   -1.6008    1.2356 H         1 <0>         0.0244
     28 H7          1.7647   -0.1336    1.2338 H         1 <0>         0.0964
     29 H8         -1.9605   -0.1726   -0.8702 H         1 <0>         0.0911
     30 H9         -1.4185   -1.6235    0.0069 H         1 <0>         0.0910
     31 H10        -3.8923   -0.9525    0.8394 H         1 <0>         0.4048
     32 H11        -5.8068   -0.8621    2.1720 H         1 <0>         0.3992
     33 H12        -7.7690    1.0211    3.0753 H         1 <0>         0.0875
     34 H13        -7.8537   -0.7412    3.3290 H         1 <0>         0.0781
     35 H14        -7.8187    1.3058    5.5958 H         1 <0>         0.0785
     36 H15        -9.3081    0.5916    4.9248 H         1 <0>         0.0925
     37 H16        -8.4075   -0.5945    6.9815 H         1 <0>         0.0784
     38 H17        -8.6116   -1.6358    5.5571 H         1 <0>         0.0663
     39 H18        -6.3424   -1.7369    6.7628 H         1 <0>         0.3995
     40 H19         0.7330   -1.5874   -1.2628 H         1 <0>         0.0540
     41 H20         0.1910   -0.1364   -2.1398 H         1 <0>         0.0540
@<TRIPOS>BOND
     1    1    2 1
     2    1   23 1
     3    1   24 1
     4    1   25 1
     5    2    3 1
     6    2    4 1
     7    2   19 1
     8    3   26 1
     9    3   27 1
    10    3   28 1
    11    4    5 1
    12    4   29 1
    13    4   30 1
    14    5    6 2
    15    5    7 am
    16    7    8 am
    17    7   31 1
    18    8    9 2
    19    8   10 am
    20   10   11 1
    21   10   32 1
    22   11   12 1
    23   11   17 1
    24   11   13 1
    25   13   14 1
    26   13   33 1
    27   13   34 1
    28   14   15 1
    29   14   35 1
    30   14   36 1
    31   15   16 1
    32   15   37 1
    33   15   38 1
    34   16   17 am
    35   16   39 1
    36   17   18 2
    37   19   20 1
    38   19   40 1
    39   19   41 1
    40   20   21 2
    41   20   22 1
@<TRIPOS>MOLECULE
ZINC19980321
   33    33     0     0     0
SMALL
USER_CHARGES
3-[(4-carbamoylpiperidine-1-carbonyl)amino]propanoic acid
@<TRIPOS>ATOM
      1 C1          1.3359    2.8660   -1.2468 C.3       1 <0>        -0.1262
      2 C2          2.6368    3.6748   -1.2326 C.3       1 <0>         0.1140
      3 N1          3.7689    2.7473   -1.1019 N.am      1 <0>        -0.6349
      4 C3          3.7699    1.7862    0.0093 C.3       1 <0>         0.1285
      5 C4          2.4563    0.9985   -0.0187 C.3       1 <0>        -0.1153
      6 C5          1.2793    1.9766   -0.0026 C.3       1 <0>        -0.1054
      7 C6         -0.0149    1.2046    0.0042 C.2       1 <0>         0.5210
      8 O1          0.0023   -0.0081   -0.0031 O.2       1 <0>        -0.5492
      9 N2         -1.1915    1.8618    0.0128 N.am      1 <0>        -0.8798
     10 C7          4.7867    2.7774   -1.9848 C.2       1 <0>         0.7048
     11 O2          5.7600    2.0688   -1.8149 O.2       1 <0>        -0.5897
     12 N3          4.7257    3.5930   -3.0561 N.am      1 <0>        -0.7528
     13 C8          5.7786    3.5457   -4.0736 C.3       1 <0>         0.1555
     14 C9          5.4711    4.5641   -5.1733 C.3       1 <0>        -0.1678
     15 C10         6.5542    4.5154   -6.2201 C.2       1 <0>         0.4643
     16 O3          7.4772    3.7452   -6.0989 O.co2     1 <0>        -0.6346
     17 O4          6.4934    5.3277   -7.2869 O.co2     1 <0>        -0.7721
     18 H1          1.3032    2.2372   -2.1488 H         1 <0>         0.0758
     19 H2          0.4760    3.5519   -1.2466 H         1 <0>         0.0787
     20 H3          2.7260    4.2423   -2.1707 H         1 <0>         0.0845
     21 H4          2.6258    4.3721   -0.3819 H         1 <0>         0.0710
     22 H5          4.6202    1.0974   -0.1025 H         1 <0>         0.0985
     23 H6          3.8597    2.3278    0.9625 H         1 <0>         0.0628
     24 H7          2.4147    0.3874   -0.9324 H         1 <0>         0.0752
     25 H8          2.4027    0.3434    0.8633 H         1 <0>         0.0816
     26 H9          1.3231    2.5988    0.9035 H         1 <0>         0.0984
     27 H10        -2.1362    1.2983    0.0178 H         1 <0>         0.4190
     28 H11        -1.2071    2.9617    0.0149 H         1 <0>         0.4184
     29 H12         3.8853    4.2942   -3.1664 H         1 <0>         0.4049
     30 H13         6.7469    3.7869   -3.6107 H         1 <0>         0.0671
     31 H14         5.8219    2.5368   -4.5098 H         1 <0>         0.0653
     32 H15         4.5028    4.3229   -5.6360 H         1 <0>         0.0692
     33 H16         5.4278    5.5730   -4.7371 H         1 <0>         0.0697
@<TRIPOS>BOND
     1    1    6 1
     2    1    2 1
     3    1   18 1
     4    1   19 1
     5    2    3 1
     6    2   20 1
     7    2   21 1
     8    3    4 1
     9    3   10 am
    10    4    5 1
    11    4   22 1
    12    4   23 1
    13    5    6 1
    14    5   24 1
    15    5   25 1
    16    6    7 1
    17    6   26 1
    18    7    8 2
    19    7    9 am
    20    9   27 1
    21    9   28 1
    22   10   11 2
    23   10   12 am
    24   12   13 1
    25   12   29 1
    26   13   14 1
    27   13   30 1
    28   13   31 1
    29   14   15 1
    30   14   32 1
    31   14   33 1
    32   15   16 2
    33   15   17 1
@<TRIPOS>MOLECULE
ZINC37432784
   39    39     0     0     0
SMALL
USER_CHARGES

@<TRIPOS>ATOM
      1 C1         -0.0184    1.5028    0.0103 C.3       1 <0>        -0.1289
      2 C2          0.0021   -0.0041    0.0020 C.2       1 <0>         0.1961
      3 C3         -1.1561   -0.6982    0.0037 C.2       1 <0>        -0.2568
      4 C4         -1.1111   -2.1132   -0.0047 C.2       1 <0>         0.5538
      5 O1         -2.1424   -2.7608   -0.0038 O.2       1 <0>        -0.5038
      6 N1          0.0842   -2.7371   -0.0142 N.am      1 <0>        -0.6601
      7 H1          0.1232   -3.7063   -0.0203 H         1 <0>         0.4299
      8 C5          1.2235   -2.0204   -0.0156 C.2       1 <0>         0.7008
      9 O2          2.2941   -2.5967   -0.0242 O.2       1 <0>        -0.5488
     10 N2          1.1944   -0.6753   -0.0130 N.am      1 <0>        -0.6334
     11 H2          2.0264   -0.1767   -0.0182 H         1 <0>         0.4342
     12 C6         -2.4789    0.0237    0.0149 C.3       1 <0>        -0.0311
     13 C7         -2.9941    0.1664   -1.4187 C.3       1 <0>        -0.1321
     14 C8         -4.3169    0.8883   -1.4075 C.2       1 <0>         0.5141
     15 O3         -4.8000    1.2527   -0.3565 O.2       1 <0>        -0.5509
     16 N3         -4.9631    1.1289   -2.5655 N.am      1 <0>        -0.6956
     17 C9         -6.2491    1.8306   -2.5547 C.3       1 <0>         0.0788
     18 H3         -6.8096    1.5482   -1.6635 H         1 <0>         0.0803
     19 C10        -7.0486    1.4494   -3.8022 C.3       1 <0>        -0.0866
     20 C11        -7.2920   -0.0611   -3.8102 C.3       1 <0>        -0.1421
     21 C12        -8.3916    2.1823   -3.7909 C.3       1 <0>        -0.1434
     22 C13        -6.0094    3.3184   -2.5468 C.2       1 <0>         0.4929
     23 O4         -4.8868    3.7560   -2.7332 O.co2     1 <0>        -0.6916
     24 O5         -6.9381    4.0845   -2.3540 O.co2     1 <0>        -0.6921
     25 H4          1.0042    1.8801    0.0026 H         1 <0>         0.0785
     26 H5         -0.5455    1.8639   -0.8728 H         1 <0>         0.1054
     27 H6         -0.5286    1.8543    0.9071 H         1 <0>         0.1042
     28 H7         -3.1981   -0.5448    0.6045 H         1 <0>         0.0887
     29 H8         -2.3494    1.0126    0.4546 H         1 <0>         0.0874
     30 H9         -2.2749    0.7349   -2.0083 H         1 <0>         0.0880
     31 H10        -3.1236   -0.8225   -1.8584 H         1 <0>         0.0879
     32 H11        -4.5768    0.8374   -3.4062 H         1 <0>         0.3893
     33 H12        -6.4881    1.7319   -4.6933 H         1 <0>         0.0643
     34 H13        -7.8525   -0.3435   -2.9190 H         1 <0>         0.0512
     35 H14        -7.8616   -0.3326   -4.6989 H         1 <0>         0.0483
     36 H15        -6.3352   -0.5832   -3.8183 H         1 <0>         0.0490
     37 H16        -8.2183    3.2584   -3.7852 H         1 <0>         0.0872
     38 H17        -8.9613    1.9108   -4.6796 H         1 <0>         0.0388
     39 H18        -8.9522    1.8999   -2.8997 H         1 <0>         0.0482
@<TRIPOS>BOND
     1    1    2 1
     2    1   25 1
     3    1   26 1
     4    1   27 1
     5    2   10 1
     6    2    3 2
     7    3    4 1
     8    3   12 1
     9    4    5 2
    10    4    6 am
    11    6    7 1
    12    6    8 am
    13    8    9 2
    14    8   10 am
    15   10   11 1
    16   12   13 1
    17   12   28 1
    18   12   29 1
    19   13   14 1
    20   13   30 1
    21   13   31 1
    22   14   15 2
    23   14   16 am
    24   16   17 1
    25   16   32 1
    26   17   18 1
    27   17   19 1
    28   17   22 1
    29   19   20 1
    30   19   21 1
    31   19   33 1
    32   20   34 1
    33   20   35 1
    34   20   36 1
    35   21   37 1
    36   21   38 1
    37   21   39 1
    38   22   23 2
    39   22   24 1
@<TRIPOS>MOLECULE
ZINC40573738
   40    40     0     0     0
SMALL
USER_CHARGES

@<TRIPOS>ATOM
      1 C1         -0.0178    1.4648    0.0101 C.3       1 <0>        -0.0448
      2 N1          0.0021   -0.0041    0.0020 N.4       1 <0>        -0.3859
      3 C2          0.6815   -0.4760   -1.2105 C.3       1 <0>         0.0011
      4 C3          0.6339   -2.0045   -1.2642 C.3       1 <0>        -0.1570
      5 C4          1.3359   -2.5754   -0.0287 C.3       1 <0>         0.1597
      6 C5          0.6658   -2.0178    1.2303 C.3       1 <0>        -0.1648
      7 C6          0.7122   -0.4888    1.1916 C.3       1 <0>        -0.0013
      8 N2          1.2277   -4.0364   -0.0351 N.am      1 <0>        -0.7531
      9 C7          2.1422   -4.7827    0.6154 C.2       1 <0>         0.7007
     10 O1          3.0570   -4.2435    1.2076 O.2       1 <0>        -0.5973
     11 N3          2.0426   -6.1268    0.6095 N.am      1 <0>        -0.6911
     12 C8          3.0367   -6.9380    1.3167 C.3       1 <0>         0.0912
     13 H1          3.3555   -6.4167    2.2193 H         1 <0>         0.0770
     14 C9          2.4185   -8.2849    1.6970 C.3       1 <0>        -0.0852
     15 C10         1.2883   -8.0613    2.7038 C.3       1 <0>        -0.1736
     16 C11         0.6795   -9.3879    3.0784 C.2       1 <0>         0.4884
     17 O2          1.1096  -10.4169    2.5858 O.co2     1 <0>        -0.6937
     18 O3         -0.2433   -9.4322    3.8741 O.co2     1 <0>        -0.7187
     19 C12         4.2273   -7.1666    0.4215 C.2       1 <0>         0.4957
     20 O4          5.3367   -7.3079    0.9069 O.co2     1 <0>        -0.6969
     21 O5          4.0810   -7.2103   -0.7881 O.co2     1 <0>        -0.7008
     22 H2          1.0047    1.8421    0.0024 H         1 <0>         0.1203
     23 H3         -0.5450    1.8259   -0.8730 H         1 <0>         0.1199
     24 H4         -0.5280    1.8163    0.9069 H         1 <0>         0.1208
     25 H5          0.1827   -0.0663   -2.0888 H         1 <0>         0.1308
     26 H6          1.7201   -0.1456   -1.1964 H         1 <0>         0.1309
     27 H7         -0.4044   -2.3361   -1.2786 H         1 <0>         0.0917
     28 H8          1.1404   -2.3531   -2.1643 H         1 <0>         0.1194
     29 H9          2.3869   -2.2866   -0.0407 H         1 <0>         0.1015
     30 H10        -0.3718   -2.3496    1.2677 H         1 <0>         0.0876
     31 H11         1.1951   -2.3758    2.1133 H         1 <0>         0.1210
     32 H12         1.7502   -0.1581    1.1545 H         1 <0>         0.1304
     33 H13         0.2361   -0.0886    2.0867 H         1 <0>         0.1296
     34 H14         0.4979   -4.4666   -0.5076 H         1 <0>         0.3962
     35 H15         1.3128   -6.5570    0.1371 H         1 <0>         0.3906
     36 H16         2.0198   -8.7668    0.8043 H         1 <0>         0.0615
     37 H17         3.1820   -8.9220    2.1435 H         1 <0>         0.0759
     38 H18         1.6870   -7.5794    3.5965 H         1 <0>         0.0516
     39 H19         0.5248   -7.4242    2.2573 H         1 <0>         0.0473
     40 H20        -0.9449   -0.3523    0.0117 H         1 <0>         0.4234
@<TRIPOS>BOND
     1    1    2 1
     2    1   22 1
     3    1   23 1
     4    1   24 1
     5    2    7 1
     6    2    3 1
     7    2   40 1
     8    3    4 1
     9    3   25 1
    10    3   26 1
    11    4    5 1
    12    4   27 1
    13    4   28 1
    14    5    6 1
    15    5    8 1
    16    5   29 1
    17    6    7 1
    18    6   30 1
    19    6   31 1
    20    7   32 1
    21    7   33 1
    22    8    9 am
    23    8   34 1
    24    9   10 2
    25    9   11 am
    26   11   12 1
    27   11   35 1
    28   12   13 1
    29   12   14 1
    30   12   19 1
    31   14   15 1
    32   14   36 1
    33   14   37 1
    34   15   16 1
    35   15   38 1
    36   15   39 1
    37   16   17 2
    38   16   18 1
    39   19   20 2
    40   19   21 1
@<TRIPOS>MOLECULE
ZINC42439590
   43    44     0     0     0
SMALL
USER_CHARGES

@<TRIPOS>ATOM
      1 C1         -0.0211    1.5273    0.0185 C.3       1 <0>        -0.1607
      2 C2          0.0027   -0.0025    0.0026 C.3       1 <0>         0.1538
      3 H1          0.5157   -0.3506   -0.8939 H         1 <0>         0.1029
      4 C3         -1.4323   -0.5386    0.0141 C.3       1 <0>        -0.1300
      5 C4         -2.1032   -0.1606    1.3366 C.3       1 <0>        -0.0957
      6 C5         -1.3396   -0.7995    2.4989 C.3       1 <0>        -0.1272
      7 H2         -1.3244   -1.8820    2.3728 H         1 <0>         0.1064
      8 C6          0.0964   -0.2663    2.5156 C.3       1 <0>         0.1296
      9 N1          0.7047   -0.4966    1.1950 N.am      1 <0>        -0.6311
     10 C7          1.8786   -1.1487    1.0798 C.2       1 <0>         0.7177
     11 O1          2.3195   -1.4169   -0.0211 O.2       1 <0>        -0.5561
     12 N2          2.5636   -1.5036    2.1849 N.am      1 <0>        -0.7179
     13 C8          3.8881   -2.1170    2.0602 C.3       1 <0>         0.1448
     14 C9          4.8300   -1.1539    1.3349 C.3       1 <0>        -0.1357
     15 C10         4.4428   -2.4204    3.4535 C.3       1 <0>        -0.1480
     16 C11         4.6864   -3.8876    3.8128 C.3       1 <0>        -0.1778
     17 C12         5.8721   -2.9590    3.5429 C.3       1 <0>        -0.1605
     18 C13         3.7765   -3.3979    1.2741 C.2       1 <0>         0.5077
     19 O2          2.6911   -3.7644    0.8567 O.co2     1 <0>        -0.6711
     20 O3          4.7715   -4.0677    1.0555 O.co2     1 <0>        -0.6988
     21 C14        -2.0202   -0.4540    3.7983 C.2       1 <0>         0.5272
     22 O4         -3.0180    0.2355    3.7956 O.2       1 <0>        -0.5438
     23 N3         -1.5201   -0.9111    4.9633 N.am      1 <0>        -0.8558
     24 H3          1.0008    1.9066    0.0154 H         1 <0>         0.0565
     25 H4         -0.5466    1.8917   -0.8642 H         1 <0>         0.0636
     26 H5         -0.5344    1.8733    0.9156 H         1 <0>         0.0560
     27 H6         -1.9902   -0.1025   -0.8146 H         1 <0>         0.0759
     28 H7         -1.4162   -1.6236   -0.0886 H         1 <0>         0.0708
     29 H8         -2.0969    0.9235    1.4502 H         1 <0>         0.0725
     30 H9         -3.1324   -0.5196    1.3373 H         1 <0>         0.0696
     31 H10         0.0871    0.8020    2.7318 H         1 <0>         0.0674
     32 H11         0.6720   -0.7906    3.2784 H         1 <0>         0.0762
     33 H12         2.1796   -1.3528    3.0628 H         1 <0>         0.3761
     34 H13         4.9107   -0.2275    1.9035 H         1 <0>         0.0341
     35 H14         5.8155   -1.6103    1.2421 H         1 <0>         0.0630
     36 H15         4.4348   -0.9378    0.3423 H         1 <0>         0.0652
     37 H16         4.1044   -1.7566    4.2490 H         1 <0>         0.0893
     38 H17         4.5081   -4.1892    4.8450 H         1 <0>         0.0752
     39 H18         4.4514   -4.6366    3.0566 H         1 <0>         0.1192
     40 H19         6.4172   -3.0972    2.6092 H         1 <0>         0.1071
     41 H20         6.4739   -2.6498    4.3975 H         1 <0>         0.0791
     42 H21        -0.7221   -1.4625    4.9655 H         1 <0>         0.4035
     43 H22        -1.9582   -0.6887    5.7997 H         1 <0>         0.4000
@<TRIPOS>BOND
     1    1    2 1
     2    1   24 1
     3    1   25 1
     4    1   26 1
     5    2    3 1
     6    2    9 1
     7    2    4 1
     8    4    5 1
     9    4   27 1
    10    4   28 1
    11    5    6 1
    12    5   29 1
    13    5   30 1
    14    6    7 1
    15    6    8 1
    16    6   21 1
    17    8    9 1
    18    8   31 1
    19    8   32 1
    20    9   10 am
    21   10   11 2
    22   10   12 am
    23   12   13 1
    24   12   33 1
    25   13   14 1
    26   13   15 1
    27   13   18 1
    28   14   34 1
    29   14   35 1
    30   14   36 1
    31   15   17 1
    32   15   16 1
    33   15   37 1
    34   16   17 1
    35   16   38 1
    36   16   39 1
    37   17   40 1
    38   17   41 1
    39   18   19 2
    40   18   20 1
    41   21   22 2
    42   21   23 am
    43   23   42 1
    44   23   43 1
@<TRIPOS>MOLECULE
ZINC50290095
   33    34     0     0     0
SMALL
USER_CHARGES

@<TRIPOS>ATOM
      1 C1          1.0721   -0.4527   -0.7664 C.ar      1 <0>        -0.1467
      2 C2          2.2559    0.2586   -0.7785 C.ar      1 <0>         0.0019
      3 C3          2.3763    1.4164   -0.0322 C.ar      1 <0>        -0.7088
      4 C4          1.3123    1.8663    0.7280 C.ar      1 <0>         0.0027
      5 C5          0.1256    1.1599    0.7441 C.ar      1 <0>        -0.1793
      6 C6          0.0017   -0.0036   -0.0040 C.ar      1 <0>         0.2345
      7 N1         -1.1992   -0.7216    0.0101 N.am      1 <0>        -0.6586
      8 C7         -1.1825   -2.0648   -0.0990 C.2       1 <0>         0.5589
      9 O1         -0.1253   -2.6591   -0.1129 O.2       1 <0>        -0.5362
     10 C8         -2.4775   -2.8284   -0.2038 C.3       1 <0>        -0.1793
     11 C9         -3.1463   -3.0963    1.1548 C.3       1 <0>        -0.1087
     12 C10        -3.4962   -4.4944    0.6182 C.3       1 <0>        -0.1276
     13 C11        -2.2877   -4.3499   -0.3218 C.3       1 <0>        -0.1005
     14 C12        -3.4131   -2.2549   -1.2366 C.2       1 <0>         0.5200
     15 O2         -3.0214   -1.3886   -2.0000 O.co2     1 <0>        -0.6831
     16 O3         -4.5618   -2.6571   -1.3089 O.co2     1 <0>        -0.6716
     17 S1          3.8887    2.3203   -0.0494 S.o2      1 <0>         2.7063
     18 O4          3.9281    3.0691    1.1576 O.2       1 <0>        -0.9716
     19 O5          4.9088    1.3981   -0.4075 O.2       1 <0>        -0.9697
     20 N2          3.7886    3.4186   -1.2847 N.pl3     1 <0>        -1.2520
     21 H1          0.9773   -1.3547   -1.3527 H         1 <0>         0.1463
     22 H2          3.0887   -0.0902   -1.3712 H         1 <0>         0.1423
     23 H3          1.4096    2.7708    1.3101 H         1 <0>         0.1426
     24 H4         -0.7048    1.5115    1.3383 H         1 <0>         0.1358
     25 H5         -2.0437   -0.2526    0.0984 H         1 <0>         0.4199
     26 H6         -2.4466   -3.1119    1.9904 H         1 <0>         0.0691
     27 H7         -4.0184   -2.4701    1.3432 H         1 <0>         0.0730
     28 H8         -3.3819   -5.2870    1.3576 H         1 <0>         0.0573
     29 H9         -4.4525   -4.5352    0.0968 H         1 <0>         0.0997
     30 H10        -2.4666   -4.7357   -1.3254 H         1 <0>         0.0661
     31 H11        -1.3533   -4.7081    0.1102 H         1 <0>         0.0821
     32 H12         2.9888    3.4617   -1.8318 H         1 <0>         0.4177
     33 H13         4.5298    4.0189   -1.4612 H         1 <0>         0.4174
@<TRIPOS>BOND
     1    1    6 ar
     2    1    2 ar
     3    1   21 1
     4    2    3 ar
     5    2   22 1
     6    3    4 ar
     7    3   17 1
     8    4    5 ar
     9    4   23 1
    10    5    6 ar
    11    5   24 1
    12    6    7 1
    13    7    8 am
    14    7   25 1
    15    8    9 2
    16    8   10 1
    17   10   13 1
    18   10   11 1
    19   10   14 1
    20   11   12 1
    21   11   26 1
    22   11   27 1
    23   12   13 1
    24   12   28 1
    25   12   29 1
    26   13   30 1
    27   13   31 1
    28   14   15 2
    29   14   16 1
    30   17   18 2
    31   17   19 2
    32   17   20 1
    33   20   32 1
    34   20   33 1
@<TRIPOS>MOLECULE
ZINC22164551
   42    42     0     0     0
SMALL
USER_CHARGES
(1R,2R)-1-[(2-ethylamino-2-oxo-ethyl)carbamoylamino]-2-methyl-cyclohexane-1-carboxylic acid
@<TRIPOS>ATOM
      1 C1          6.3402    9.7720   -0.9604 C.3       1 <0>        -0.1655
      2 C2          6.0006    8.2863   -1.0960 C.3       1 <0>         0.1166
      3 N1          4.5528    8.1026   -0.9684 N.am      1 <0>        -0.7420
      4 C3          4.0199    6.8678   -1.0554 C.2       1 <0>         0.5139
      5 O1          4.7390    5.9086   -1.2394 O.2       1 <0>        -0.5434
      6 C4          2.5306    6.6788   -0.9241 C.3       1 <0>         0.1283
      7 N2          2.2055    5.2563   -1.0540 N.am      1 <0>        -0.7569
      8 C5          0.9240    4.8474   -0.9692 C.2       1 <0>         0.7159
      9 O2          0.0378    5.6592   -0.7850 O.2       1 <0>        -0.5862
     10 N3          0.6249    3.5387   -1.0887 N.am      1 <0>        -0.7174
     11 C6         -0.7680    3.0943   -0.9966 C.3       1 <0>         0.1669
     12 C7         -1.3372    3.4802    0.3701 C.3       1 <0>        -0.1164
     13 C8         -0.5143    2.8108    1.4727 C.3       1 <0>        -0.1135
     14 C9         -0.5770    1.2914    1.3047 C.3       1 <0>        -0.1181
     15 C10        -0.0079    0.9054   -0.0620 C.3       1 <0>        -0.1105
     16 C11        -0.8307    1.5748   -1.1646 C.3       1 <0>        -0.0816
     17 H1         -0.4215    1.2973   -2.1472 H         1 <0>         0.0731
     18 C12        -2.2854    1.1107   -1.0684 C.3       1 <0>        -0.1437
     19 C13        -1.5785    3.7536   -2.0826 C.2       1 <0>         0.4775
     20 O3         -2.7211    4.0828   -1.8684 O.co2     1 <0>        -0.6367
     21 O4         -1.0310    3.9752   -3.2880 O.co2     1 <0>        -0.7652
     22 H2          7.4273    9.9098   -1.0562 H         1 <0>         0.0720
     23 H3          6.0099   10.1353    0.0239 H         1 <0>         0.0623
     24 H4          5.8276   10.3390   -1.7514 H         1 <0>         0.0631
     25 H5          6.3309    7.9230   -2.0803 H         1 <0>         0.0650
     26 H6          6.5133    7.7193   -0.3050 H         1 <0>         0.0643
     27 H7          3.9006    8.9725   -0.8016 H         1 <0>         0.4249
     28 H8          2.2003    7.0420    0.0603 H         1 <0>         0.0890
     29 H9          2.0179    7.2458   -1.7151 H         1 <0>         0.0918
     30 H10         3.0073    4.5219   -1.2207 H         1 <0>         0.4190
     31 H11         1.4267    2.8043   -1.2554 H         1 <0>         0.3968
     32 H12        -1.2921    4.5726    0.4908 H         1 <0>         0.0788
     33 H13        -2.3831    3.1465    0.4392 H         1 <0>         0.0713
     34 H14         0.5316    3.1445    1.4035 H         1 <0>         0.0548
     35 H15        -0.9235    3.0883    2.4554 H         1 <0>         0.0498
     36 H16         0.0146    0.8101    2.0974 H         1 <0>         0.0511
     37 H17        -1.6229    0.9577    1.3739 H         1 <0>         0.0631
     38 H18         1.0380    1.2390   -0.1311 H         1 <0>         0.0577
     39 H19        -0.0530   -0.1870   -0.1827 H         1 <0>         0.0575
     40 H20        -2.3305    0.0183   -1.1892 H         1 <0>         0.0460
     41 H21        -2.8770    1.5920   -1.8611 H         1 <0>         0.0664
     42 H22        -2.6946    1.3882   -0.0858 H         1 <0>         0.0601
@<TRIPOS>BOND
     1    1    2 1
     2    1   22 1
     3    1   23 1
     4    1   24 1
     5    2    3 1
     6    2   25 1
     7    2   26 1
     8    3    4 am
     9    3   27 1
    10    4    5 2
    11    4    6 1
    12    6    7 1
    13    6   28 1
    14    6   29 1
    15    7    8 am
    16    7   30 1
    17    8    9 2
    18    8   10 am
    19   10   11 1
    20   10   31 1
    21   11   16 1
    22   11   12 1
    23   11   19 1
    24   12   13 1
    25   12   32 1
    26   12   33 1
    27   13   14 1
    28   13   34 1
    29   13   35 1
    30   14   15 1
    31   14   36 1
    32   14   37 1
    33   15   16 1
    34   15   38 1
    35   15   39 1
    36   16   17 1
    37   16   18 1
    38   18   40 1
    39   18   41 1
    40   18   42 1
    41   19   20 2
    42   19   21 1
@<TRIPOS>MOLECULE
ZINC37431818
   34    35     0     0     0
SMALL
USER_CHARGES

@<TRIPOS>ATOM
      1 C1         -0.0187    1.5258    0.0104 C.3       1 <0>        -0.1824
      2 C2          0.0021   -0.0041    0.0020 C.3       1 <0>         0.1100
      3 H1          0.5293   -0.3651    0.8851 H         1 <0>         0.0548
      4 C3         -1.4333   -0.5336    0.0129 C.3       1 <0>         0.0792
      5 H2         -1.9605   -0.1726   -0.8702 H         1 <0>         0.0910
      6 C4         -1.4129   -2.0405    0.0046 C.2       1 <0>         0.4987
      7 O1         -1.3945   -2.6557    1.0571 O.co2     1 <0>        -0.6970
      8 O2         -1.4147   -2.6444   -1.0546 O.co2     1 <0>        -0.6786
      9 N1         -2.1190   -0.0612    1.2182 N.am      1 <0>        -0.6839
     10 C5         -3.4622    0.0493    1.2298 C.2       1 <0>         0.5547
     11 O3         -4.1048   -0.2432    0.2400 O.2       1 <0>        -0.5331
     12 C6         -4.1531    0.5253    2.4442 C.ar      1 <0>        -0.1047
     13 C7         -3.4148    0.8670    3.5802 C.ar      1 <0>        -0.0739
     14 C8         -4.0593    1.3115    4.7144 C.ar      1 <0>        -0.1283
     15 C9         -5.4431    1.4198    4.7295 C.ar      1 <0>         0.1067
     16 C10        -6.1869    1.0795    3.5973 C.ar      1 <0>         0.0676
     17 C11        -5.5462    0.6401    2.4570 C.ar      1 <0>        -0.0479
     18 O4         -7.5425    1.1887    3.6300 O.3       1 <0>        -0.2981
     19 C12        -8.1764    0.9378    4.8870 C.3       1 <0>         0.0493
     20 C13        -7.4397    1.6701    5.9796 C.2       1 <0>         0.4922
     21 O5         -8.0407    2.0788    6.9506 O.2       1 <0>        -0.5137
     22 N2         -6.1082    1.8698    5.8733 N.am      1 <0>        -0.6566
     23 O6          0.6709   -0.4649   -1.1737 O.3       1 <0>        -0.5408
     24 H3          1.0039    1.9031    0.0027 H         1 <0>         0.0542
     25 H4         -0.5459    1.8868   -0.8726 H         1 <0>         0.0628
     26 H5         -0.5289    1.8773    0.9072 H         1 <0>         0.0620
     27 H6         -1.6063    0.1721    2.0079 H         1 <0>         0.3909
     28 H7         -2.3382    0.7824    3.5696 H         1 <0>         0.1386
     29 H8         -3.4875    1.5752    5.5918 H         1 <0>         0.1393
     30 H9         -6.1193    0.3815    1.5789 H         1 <0>         0.1548
     31 H10        -9.2086    1.2859    4.8489 H         1 <0>         0.1468
     32 H11        -8.1619   -0.1323    5.0937 H         1 <0>         0.1023
     33 H12        -5.6203    2.3189    6.5812 H         1 <0>         0.4164
     34 H13         1.5879   -0.1667   -1.2470 H         1 <0>         0.3668
@<TRIPOS>BOND
     1    1    2 1
     2    1   24 1
     3    1   25 1
     4    1   26 1
     5    2    3 1
     6    2    4 1
     7    2   23 1
     8    4    5 1
     9    4    6 1
    10    4    9 1
    11    6    7 2
    12    6    8 1
    13    9   10 am
    14    9   27 1
    15   10   11 2
    16   10   12 1
    17   12   17 ar
    18   12   13 ar
    19   13   14 ar
    20   13   28 1
    21   14   15 ar
    22   14   29 1
    23   15   22 1
    24   15   16 ar
    25   16   17 ar
    26   16   18 1
    27   17   30 1
    28   18   19 1
    29   19   20 1
    30   19   31 1
    31   19   32 1
    32   20   21 2
    33   20   22 am
    34   22   33 1
    35   23   34 1
@<TRIPOS>MOLECULE
ZINC40831045
   27    28     0     0     0
SMALL
USER_CHARGES

@<TRIPOS>ATOM
      1 C1         -0.0169    1.3977    0.0097 C.2       1 <0>         0.0603
      2 C2          1.1638    2.0807    0.0021 C.2       1 <0>        -0.2610
      3 C3          2.3727    1.3642   -0.0133 C.2       1 <0>         0.5254
      4 O1          3.4365    1.9628   -0.0198 O.2       1 <0>        -0.5550
      5 N1          2.3580    0.0177   -0.0204 N.am      1 <0>        -0.6054
      6 H1          3.1959   -0.4709   -0.0307 H         1 <0>         0.4173
      7 C4          1.1838   -0.6637   -0.0128 C.2       1 <0>         0.2450
      8 C5          0.0021   -0.0041    0.0020 C.2       1 <0>        -0.7189
      9 S1         -1.5113   -0.9064    0.0110 S.o2      1 <0>         2.6084
     10 O2         -1.1692   -2.2712    0.2103 O.2       1 <0>        -1.0134
     11 O3         -2.3953   -0.2083    0.8773 O.2       1 <0>        -1.0040
     12 N2         -2.1555   -0.7973   -1.5106 N.2       1 <0>        -0.9766
     13 C6         -3.3563   -1.4178   -1.7988 C.2       1 <0>         0.2724
     14 C7         -4.0380   -1.4386   -3.0084 C.2       1 <0>        -0.3602
     15 C8         -5.2853   -2.1700   -3.0337 C.2       1 <0>        -0.0653
     16 C9         -5.6478   -2.7514   -1.8765 C.2       1 <0>        -0.2667
     17 S2         -4.3217   -2.3251   -0.7694 S.3       1 <0>        -0.0246
     18 C10        -3.5211   -0.7553   -4.1961 C.2       1 <0>         0.5885
     19 O4         -2.4673   -0.1484   -4.1389 O.2       1 <0>        -0.5403
     20 N3         -4.2119   -0.7985   -5.3525 N.am      1 <0>        -0.8765
     21 H2         -0.9560    1.9309    0.0260 H         1 <0>         0.1469
     22 H3          1.1695    3.1606    0.0075 H         1 <0>         0.1533
     23 H4          1.1928   -1.7437   -0.0191 H         1 <0>         0.1861
     24 H5         -5.8885   -2.2443   -3.9264 H         1 <0>         0.1223
     25 H6         -6.5297   -3.3396   -1.6700 H         1 <0>         0.1666
     26 H7         -5.0515   -1.2821   -5.3981 H         1 <0>         0.3886
     27 H8         -3.8696   -0.3459   -6.1392 H         1 <0>         0.3870
@<TRIPOS>BOND
     1    1    8 1
     2    1    2 2
     3    1   21 1
     4    2    3 1
     5    2   22 1
     6    3    4 2
     7    3    5 am
     8    5    6 1
     9    5    7 1
    10    7    8 2
    11    7   23 1
    12    8    9 1
    13    9   10 2
    14    9   11 2
    15    9   12 1
    16   12   13 1
    17   13   17 1
    18   13   14 2
    19   14   15 1
    20   14   18 1
    21   15   16 2
    22   15   24 1
    23   16   17 1
    24   16   25 1
    25   18   19 2
    26   18   20 am
    27   20   26 1
    28   20   27 1
@<TRIPOS>MOLECULE
ZINC48925137
   40    40     0     0     0
SMALL
USER_CHARGES

@<TRIPOS>ATOM
      1 C1         -0.0250    1.5597    0.0058 C.3       1 <0>        -0.1516
      2 C2         -0.0949    0.0327   -0.0602 C.3       1 <0>         0.1539
      3 C3         -1.5549   -0.4223    0.0459 C.3       1 <0>         0.0591
      4 O1         -2.0462   -0.1263    1.3554 O.3       1 <0>        -0.3791
      5 C4         -1.3625   -0.8134    2.4062 C.3       1 <0>         0.0491
      6 C5          0.1074   -0.3784    2.4210 C.3       1 <0>         0.0794
      7 N1          0.6549   -0.5468    1.0655 N.am      1 <0>        -0.6303
      8 C6          1.8092   -1.2119    0.8612 C.2       1 <0>         0.7156
      9 O2          2.2992   -1.2517   -0.2508 O.2       1 <0>        -0.5843
     10 N2          2.4203   -1.8328    1.8896 N.am      1 <0>        -0.7119
     11 C7          3.7295   -2.4600    1.6929 C.3       1 <0>         0.0918
     12 H1          3.7835   -2.8813    0.6891 H         1 <0>         0.0844
     13 C8          3.9218   -3.5735    2.7244 C.3       1 <0>        -0.0928
     14 C9          2.8993   -4.6836    2.4730 C.3       1 <0>        -0.1384
     15 C10         3.0887   -5.7804    3.4890 C.2       1 <0>         0.5146
     16 O3          3.9559   -5.6837    4.3312 O.2       1 <0>        -0.5384
     17 N3          2.2942   -6.8688    3.4617 N.am      1 <0>        -0.8629
     18 C11         4.8125   -1.4258    1.8624 C.2       1 <0>         0.4906
     19 O4          4.5376   -0.3213    2.2995 O.co2     1 <0>        -0.6875
     20 O5          5.9635   -1.6936    1.5625 O.co2     1 <0>        -0.6970
     21 C12         0.5025   -0.4537   -1.3821 C.3       1 <0>        -0.1287
     22 H2          1.0158    1.8786   -0.0508 H         1 <0>         0.0625
     23 H3         -0.5813    1.9853   -0.8294 H         1 <0>         0.0624
     24 H4         -0.4597    1.9031    0.9445 H         1 <0>         0.0595
     25 H5         -2.1553    0.1044   -0.6959 H         1 <0>         0.1018
     26 H6         -1.6154   -1.4961   -0.1315 H         1 <0>         0.0533
     27 H7         -1.8244   -0.5680    3.3625 H         1 <0>         0.1028
     28 H8         -1.4222   -1.8886    2.2374 H         1 <0>         0.0530
     29 H9          0.1776    0.6681    2.7178 H         1 <0>         0.0752
     30 H10         0.6665   -0.9977    3.1223 H         1 <0>         0.0864
     31 H11         1.9932   -1.8644    2.7599 H         1 <0>         0.3828
     32 H12         4.9291   -3.9805    2.6362 H         1 <0>         0.0890
     33 H13         3.7798   -3.1689    3.7265 H         1 <0>         0.0678
     34 H14         1.8920   -4.2766    2.5611 H         1 <0>         0.0883
     35 H15         3.0413   -5.0882    1.4708 H         1 <0>         0.0936
     36 H16         1.6005   -6.9461    2.7880 H         1 <0>         0.3993
     37 H17         2.4160   -7.5747    4.1156 H         1 <0>         0.3964
     38 H18         1.4912   -0.0152   -1.5172 H         1 <0>         0.0870
     39 H19         0.5862   -1.5404   -1.3649 H         1 <0>         0.0637
     40 H20        -0.1444   -0.1522   -2.2060 H         1 <0>         0.0395
@<TRIPOS>BOND
     1    1    2 1
     2    1   22 1
     3    1   23 1
     4    1   24 1
     5    2    7 1
     6    2    3 1
     7    2   21 1
     8    3    4 1
     9    3   25 1
    10    3   26 1
    11    4    5 1
    12    5    6 1
    13    5   27 1
    14    5   28 1
    15    6    7 1
    16    6   29 1
    17    6   30 1
    18    7    8 am
    19    8    9 2
    20    8   10 am
    21   10   11 1
    22   10   31 1
    23   11   12 1
    24   11   13 1
    25   11   18 1
    26   13   14 1
    27   13   32 1
    28   13   33 1
    29   14   15 1
    30   14   34 1
    31   14   35 1
    32   15   16 2
    33   15   17 am
    34   17   36 1
    35   17   37 1
    36   18   19 2
    37   18   20 1
    38   21   38 1
    39   21   39 1
    40   21   40 1
@<TRIPOS>MOLECULE
ZINC62870226
   32    33     0     0     0
SMALL
USER_CHARGES

@<TRIPOS>ATOM
      1 C1         -0.1679    1.9190    0.4638 C.3       1 <0>        -0.1079
      2 C2         -0.1242    0.4350    0.0941 C.3       1 <0>        -0.1427
      3 C3          0.5192    0.2709   -1.2848 C.3       1 <0>        -0.0925
      4 C4          1.9308    0.8618   -1.2645 C.3       1 <0>        -0.1346
      5 C5          2.7822    0.1048   -0.2404 C.3       1 <0>         0.0892
      6 N1          2.0969    0.1346    1.0589 N.am      1 <0>        -0.5841
      7 C6          0.7040   -0.3268    1.1335 C.3       1 <0>         0.1392
      8 C7          2.7340    0.5764    2.1613 C.2       1 <0>         0.5979
      9 O1          2.1206    0.7215    3.2007 O.2       1 <0>        -0.5096
     10 C8          4.1788    0.8846    2.1065 C.2       1 <0>         0.2381
     11 N2          4.8925    1.4629    3.0867 N.2       1 <0>        -0.5381
     12 C9          6.1426    1.5887    2.7076 C.2       1 <0>         0.5334
     13 N3          6.2555    1.0852    1.4569 N.pl3     1 <0>        -0.5141
     14 H1          7.0617    1.0422    0.9192 H         1 <0>         0.4368
     15 N4          4.9774    0.6322    1.0921 N.2       1 <0>        -0.2833
     16 N5          7.1664    2.1404    3.4561 N.pl3     1 <0>        -0.8241
     17 C10        -1.5260   -0.1175    0.0647 C.2       1 <0>         0.5063
     18 O2         -2.4727    0.6084    0.3163 O.co2     1 <0>        -0.6902
     19 O3         -1.7133   -1.2903   -0.2106 O.co2     1 <0>        -0.6960
     20 H2          0.8461    2.3185    0.4838 H         1 <0>         0.0319
     21 H3         -0.7572    2.4606   -0.2760 H         1 <0>         0.0489
     22 H4         -0.6236    2.0352    1.4472 H         1 <0>         0.0505
     23 H5          0.5725   -0.7882   -1.5369 H         1 <0>         0.0660
     24 H6         -0.0818    0.7916   -2.0303 H         1 <0>         0.0570
     25 H7          2.3797    0.7656   -2.2531 H         1 <0>         0.0678
     26 H8          1.8803    1.9150   -0.9883 H         1 <0>         0.0652
     27 H9          2.9090   -0.9286   -0.5631 H         1 <0>         0.0686
     28 H10         3.7572    0.5839   -0.1503 H         1 <0>         0.1159
     29 H11         0.3076   -0.1326    2.1302 H         1 <0>         0.0881
     30 H12         0.6612   -1.3954    0.9229 H         1 <0>         0.0777
     31 H13         6.9879    2.4771    4.3481 H         1 <0>         0.4262
     32 H14         8.0628    2.1907    3.0890 H         1 <0>         0.4125
@<TRIPOS>BOND
     1    1    2 1
     2    1   20 1
     3    1   21 1
     4    1   22 1
     5    2    7 1
     6    2    3 1
     7    2   17 1
     8    3    4 1
     9    3   23 1
    10    3   24 1
    11    4    5 1
    12    4   25 1
    13    4   26 1
    14    5    6 1
    15    5   27 1
    16    5   28 1
    17    6    7 1
    18    6    8 am
    19    7   29 1
    20    7   30 1
    21    8    9 2
    22    8   10 1
    23   10   15 2
    24   10   11 1
    25   11   12 2
    26   12   13 1
    27   12   16 1
    28   13   14 1
    29   13   15 1
    30   16   31 1
    31   16   32 1
    32   17   18 2
    33   17   19 1
@<TRIPOS>MOLECULE
ZINC01726900
   13    12     0     0     0
SMALL
USER_CHARGES
(2R,3R)-2-bromo-3-hydroxy-butanedioic acid
@<TRIPOS>ATOM
      1 C1         -2.2774    1.3041   -1.0001 C.3       1 <0>         0.0814
      2 H1         -2.5140    0.2861   -0.6905 H         1 <0>         0.1047
      3 C2         -1.3295    1.9397    0.0189 C.3       1 <0>        -0.0845
      4 H2         -1.1632    2.9849   -0.2422 H         1 <0>         0.0864
      5 C3         -0.0143    1.2041    0.0087 C.2       1 <0>         0.4871
      6 O1          0.0021   -0.0041    0.0020 O.co2     1 <0>        -0.6194
      7 Br1        -2.1271    1.8312    1.8125 Br        1 <0>        -0.1502
      8 C4         -3.5464    2.1131   -1.0785 C.2       1 <0>         0.4383
      9 O2         -3.8327    2.6903   -2.1006 O.co2     1 <0>        -0.6480
     10 O3         -1.6492    1.2778   -2.2833 O.3       1 <0>        -0.5474
     11 H3         -1.4102    2.1514   -2.6222 H         1 <0>         0.3639
     12 O4          1.1389    1.8910    0.0013 O.co2     1 <0>        -0.7700
     13 O5         -4.3587    2.1924   -0.0128 O.co2     1 <0>        -0.7422
@<TRIPOS>BOND
     1    1    2 1
     2    1    3 1
     3    1    8 1
     4    1   10 1
     5    3    4 1
     6    3    5 1
     7    3    7 1
     8    5    6 2
     9    5   12 1
    10    8    9 2
    11    8   13 1
    12   10   11 1
@<TRIPOS>MOLECULE
ZINC36327653
   35    37     0     0     0
SMALL
USER_CHARGES

@<TRIPOS>ATOM
      1 C1         -0.0189    1.5403    0.0105 C.3       1 <0>        -0.1119
      2 C2          1.4858    1.8735   -0.0021 C.3       1 <0>        -0.0821
      3 C3          2.1781    0.6680    0.6404 C.2       1 <0>        -0.0710
      4 C4          1.3236   -0.3672    0.6247 C.2       1 <0>        -0.2082
      5 S1          2.2097   -1.7108    1.3813 S.3       1 <0>         0.1241
      6 C5          3.7334   -0.8720    1.7206 C.ar      1 <0>         0.1667
      7 C6          3.5039    0.4276    1.2341 C.ar      1 <0>        -0.2537
      8 C7          4.5849    1.3394    1.3797 C.ar      1 <0>         0.5107
      9 N1          5.7059    0.9206    1.9459 N.ar      1 <0>        -0.5648
     10 C8          5.8536   -0.3190    2.3811 C.ar      1 <0>         0.4368
     11 N2          4.8836   -1.2084    2.2728 N.ar      1 <0>        -0.5359
     12 Cl1         7.3570   -0.7881    3.1115 Cl        1 <0>         0.0204
     13 N3          4.4673    2.6442    0.9362 N.pl3     1 <0>        -0.6291
     14 C9          5.5882    3.5746    1.0918 C.3       1 <0>         0.0675
     15 H1          6.5275    3.0362    0.9657 H         1 <0>         0.0880
     16 C10         5.4864    4.6769    0.0357 C.3       1 <0>        -0.0845
     17 C11         5.6575    4.0664   -1.3568 C.3       1 <0>        -0.1782
     18 C12         5.5573    5.1521   -2.3971 C.2       1 <0>         0.4917
     19 O1          5.3667    6.3071   -2.0564 O.co2     1 <0>        -0.6961
     20 O2          5.6668    4.8755   -3.5795 O.co2     1 <0>        -0.7172
     21 C13         5.5428    4.1904    2.4665 C.2       1 <0>         0.5013
     22 O3          6.5763    4.5307    3.0165 O.co2     1 <0>        -0.6920
     23 O4          4.4725    4.3482    3.0288 O.co2     1 <0>        -0.6975
     24 C14         0.0021   -0.0041    0.0020 C.3       1 <0>        -0.0236
     25 H2         -0.4950    1.9192    0.9149 H         1 <0>         0.0771
     26 H3         -0.5121    1.9288   -0.8805 H         1 <0>         0.0837
     27 H4          1.8340    2.0065   -1.0264 H         1 <0>         0.0885
     28 H5          1.6775    2.7737    0.5819 H         1 <0>         0.0819
     29 H6          3.6426    2.9433    0.5221 H         1 <0>         0.4088
     30 H7          4.5103    5.1570    0.1045 H         1 <0>         0.0610
     31 H8          6.2682    5.4170    0.2064 H         1 <0>         0.0783
     32 H9          6.6336    3.5862   -1.4256 H         1 <0>         0.0541
     33 H10         4.8757    3.3263   -1.5276 H         1 <0>         0.0483
     34 H11        -0.8206   -0.3989    0.5982 H         1 <0>         0.0751
     35 H12        -0.0529   -0.3796   -1.0198 H         1 <0>         0.0817
@<TRIPOS>BOND
     1    1   24 1
     2    1    2 1
     3    1   25 1
     4    1   26 1
     5    2    3 1
     6    2   27 1
     7    2   28 1
     8    3    7 1
     9    3    4 2
    10    4    5 1
    11    4   24 1
    12    5    6 1
    13    6   11 ar
    14    6    7 ar
    15    7    8 ar
    16    8    9 ar
    17    8   13 1
    18    9   10 ar
    19   10   11 ar
    20   10   12 1
    21   13   14 1
    22   13   29 1
    23   14   15 1
    24   14   16 1
    25   14   21 1
    26   16   17 1
    27   16   30 1
    28   16   31 1
    29   17   18 1
    30   17   32 1
    31   17   33 1
    32   18   19 2
    33   18   20 1
    34   21   22 2
    35   21   23 1
    36   24   34 1
    37   24   35 1
@<TRIPOS>MOLECULE
ZINC17145937
   32    33     0     0     0
SMALL
USER_CHARGES

@<TRIPOS>ATOM
      1 C1          0.0158    1.4368    0.0130 C.ar      1 <0>         0.0024
      2 C2          1.2150    2.0766    0.2558 C.ar      1 <0>        -0.1656
      3 C3          2.4036    1.3555    0.2289 C.ar      1 <0>         0.3172
      4 C4          2.3791   -0.0085   -0.0428 C.ar      1 <0>        -0.7153
      5 C5          1.1760   -0.6406   -0.2845 C.ar      1 <0>         0.0737
      6 C6         -0.0043    0.0805   -0.2568 C.ar      1 <0>        -0.1163
      7 N1         -1.2921   -0.6014   -0.5166 N.pl3     1 <0>         0.0505
      8 O1         -2.3246    0.0272   -0.4927 O.2       1 <0>        -0.1812
      9 O2         -1.3115   -1.7870   -0.7526 O.3       1 <0>        -0.1727
     10 S1          3.8817   -0.9279   -0.0790 S.o2      1 <0>         2.6856
     11 O3          4.1947   -1.2800    1.2972 O.2       1 <0>        -1.0461
     12 O4          3.6373   -2.1045   -0.8987 O.2       1 <0>        -1.0424
     13 O5          4.8938   -0.0605   -0.6616 O.3       1 <0>        -1.0522
     14 N2          3.6155    1.9972    0.4728 N.pl3     1 <0>        -0.4853
     15 N3          3.6492    3.2787    0.6170 N.2       1 <0>        -0.1900
     16 C7          4.8188    3.9038    0.7511 C.2       1 <0>         0.0844
     17 C8          6.0105    3.1466    0.8479 C.2       1 <0>        -0.1005
     18 C9          7.2121    3.7514    0.9851 C.2       1 <0>        -0.1710
     19 C10         7.2997    5.1597    1.0345 C.2       1 <0>         0.3933
     20 O6          8.3849    5.7064    1.1584 O.2       1 <0>        -0.4284
     21 C11         6.0738    5.9597    0.9351 C.2       1 <0>        -0.1990
     22 C12         4.8565    5.3098    0.7892 C.2       1 <0>        -0.0294
     23 C13         6.1348    7.4258    0.9835 C.2       1 <0>         0.5270
     24 O7          5.1064    8.0841    0.8997 O.co2     1 <0>        -0.6922
     25 O8          7.2140    7.9897    1.1077 O.co2     1 <0>        -0.6652
     26 H1         -0.9082    1.9953    0.0382 H         1 <0>         0.1562
     27 H2          1.2298    3.1359    0.4661 H         1 <0>         0.1637
     28 H3          1.1562   -1.6996   -0.4959 H         1 <0>         0.1670
     29 H4          4.4341    1.4806    0.5343 H         1 <0>         0.4101
     30 H5          5.9593    2.0684    0.8120 H         1 <0>         0.1337
     31 H6          8.1091    3.1543    1.0575 H         1 <0>         0.1405
     32 H7          3.9427    5.8799    0.7099 H         1 <0>         0.1475
@<TRIPOS>BOND
     1    1    6 ar
     2    1    2 ar
     3    1   26 1
     4    2    3 ar
     5    2   27 1
     6    3    4 ar
     7    3   14 1
     8    4    5 ar
     9    4   10 1
    10    5    6 ar
    11    5   28 1
    12    6    7 1
    13    7    8 2
    14    7    9 1
    15   10   11 2
    16   10   12 2
    17   10   13 1
    18   14   15 1
    19   14   29 1
    20   15   16 2
    21   16   22 1
    22   16   17 1
    23   17   18 2
    24   17   30 1
    25   18   19 1
    26   18   31 1
    27   19   20 2
    28   19   21 1
    29   21   22 2
    30   21   23 1
    31   22   32 1
    32   23   24 2
    33   23   25 1
@<TRIPOS>MOLECULE
ZINC44935533
   33    33     0     0     0
SMALL
USER_CHARGES

@<TRIPOS>ATOM
      1 C1         -0.0187    1.5258    0.0104 C.3       1 <0>        -0.1479
      2 C2          0.0021   -0.0041    0.0020 C.3       1 <0>         0.2782
      3 H1          0.5123   -0.3556   -0.8948 H         1 <0>         0.0883
      4 C3         -1.4117   -0.5257    0.0127 C.2       1 <0>         0.0551
      5 N1         -2.0675   -1.0519   -1.0114 N.2       1 <0>        -0.3821
      6 N2         -3.2447   -1.3745   -0.5961 N.2       1 <0>        -0.2036
      7 N3         -3.3481   -1.0688    0.6504 N.2       1 <0>        -0.2027
      8 N4         -2.2365   -0.5517    1.0495 N.2       1 <0>        -0.3798
      9 N5          0.7106   -0.4894    1.1889 N.am      1 <0>        -0.7347
     10 C4          2.0538   -0.5998    1.1737 C.2       1 <0>         0.7118
     11 O1          2.6774   -0.2967    0.1749 O.2       1 <0>        -0.6030
     12 N6          2.7056   -1.0463    2.2656 N.am      1 <0>        -0.7182
     13 C5          4.1656   -1.1663    2.2490 C.3       1 <0>         0.1024
     14 H2          4.4942   -1.4671    1.2542 H         1 <0>         0.0820
     15 C6          4.6024   -2.2185    3.2703 C.3       1 <0>        -0.0901
     16 C7          4.0786   -3.5914    2.8440 C.3       1 <0>        -0.0714
     17 S1          4.5965   -4.8389    4.0548 S.3       1 <0>        -0.2829
     18 C8          3.9049   -6.3878    3.4122 C.3       1 <0>        -0.1198
     19 C9          4.7829    0.1625    2.6015 C.2       1 <0>         0.4928
     20 O2          4.0823    1.0684    3.0199 O.co2     1 <0>        -0.6815
     21 O3          5.9830    0.3317    2.4682 O.co2     1 <0>        -0.7055
     22 H3          1.0039    1.9031    0.0027 H         1 <0>         0.0621
     23 H4         -0.5459    1.8868   -0.8726 H         1 <0>         0.0541
     24 H5         -0.5289    1.8773    0.9072 H         1 <0>         0.0547
     25 H6          0.2131   -0.7312    1.9857 H         1 <0>         0.3960
     26 H7          2.2081   -1.2881    3.0624 H         1 <0>         0.3855
     27 H8          5.6909   -2.2449    3.3219 H         1 <0>         0.0874
     28 H9          4.1983   -1.9636    4.2500 H         1 <0>         0.0701
     29 H10         2.9901   -3.5649    2.7924 H         1 <0>         0.0816
     30 H11         4.4826   -3.8462    1.8642 H         1 <0>         0.0797
     31 H12         4.1664   -7.2077    4.0812 H         1 <0>         0.0948
     32 H13         2.8201   -6.3027    3.3487 H         1 <0>         0.0740
     33 H14         4.3126   -6.5839    2.4205 H         1 <0>         0.0727
@<TRIPOS>BOND
     1    1    2 1
     2    1   22 1
     3    1   23 1
     4    1   24 1
     5    2    3 1
     6    2    4 1
     7    2    9 1
     8    4    5 1
     9    4    8 2
    10    5    6 1
    11    6    7 2
    12    7    8 1
    13    9   10 am
    14    9   25 1
    15   10   11 2
    16   10   12 am
    17   12   13 1
    18   12   26 1
    19   13   14 1
    20   13   15 1
    21   13   19 1
    22   15   16 1
    23   15   27 1
    24   15   28 1
    25   16   17 1
    26   16   29 1
    27   16   30 1
    28   17   18 1
    29   18   31 1
    30   18   32 1
    31   18   33 1
    32   19   20 2
    33   19   21 1
@<TRIPOS>MOLECULE
ZINC62934737
   39    40     0     0     0
SMALL
USER_CHARGES

@<TRIPOS>ATOM
      1 C1         -0.0187    1.5258    0.0104 C.3       1 <0>        -0.1457
      2 C2          0.0021   -0.0041    0.0020 C.3       1 <0>        -0.1384
      3 C3         -1.4333   -0.5336    0.0129 C.3       1 <0>        -0.0797
      4 C4         -1.4126   -2.0635    0.0045 C.3       1 <0>        -0.1413
      5 C5         -2.8524   -2.6206    0.0892 C.3       1 <0>        -0.1125
      6 C6         -2.6947   -3.8403    1.0317 C.3       1 <0>         0.1062
      7 N1         -1.6973   -3.3763    2.0236 N.am      1 <0>        -0.6391
      8 C7         -0.7032   -2.5958    1.2635 C.3       1 <0>         0.1550
      9 C8         -1.6986   -3.6171    3.3497 C.2       1 <0>         0.7251
     10 O1         -0.8105   -3.1702    4.0496 O.2       1 <0>        -0.6062
     11 N2         -2.6843   -4.3534    3.8999 N.am      1 <0>        -0.7306
     12 C9         -2.6856   -4.6152    5.3414 C.3       1 <0>         0.2766
     13 H1         -2.2917   -3.7464    5.8688 H         1 <0>         0.0901
     14 C10        -1.8092   -5.8333    5.6393 C.3       1 <0>        -0.1471
     15 C11        -4.0950   -4.8857    5.8014 C.2       1 <0>         0.0508
     16 N3         -4.6833   -4.3885    6.8796 N.2       1 <0>        -0.3803
     17 N4         -5.8829   -4.8592    6.9211 N.2       1 <0>        -0.2007
     18 N5         -6.0652   -5.6325    5.9079 N.2       1 <0>        -0.1993
     19 N6         -4.9863   -5.6620    5.2026 N.2       1 <0>        -0.3795
     20 C12        -0.7252   -2.5700   -1.2373 C.2       1 <0>         0.5122
     21 O2          0.4317   -2.2588   -1.4637 O.co2     1 <0>        -0.6887
     22 O3         -1.3260   -3.2910   -2.0156 O.co2     1 <0>        -0.6931
     23 H2          1.0039    1.9031    0.0027 H         1 <0>         0.0441
     24 H3         -0.5459    1.8868   -0.8726 H         1 <0>         0.0445
     25 H4         -0.5289    1.8773    0.9072 H         1 <0>         0.0412
     26 H5          0.5123   -0.3556   -0.8948 H         1 <0>         0.1034
     27 H6          0.5293   -0.3651    0.8851 H         1 <0>         0.0540
     28 H7         -1.9435   -0.1821    0.9097 H         1 <0>         0.0446
     29 H8         -1.9605   -0.1726   -0.8702 H         1 <0>         0.0511
     30 H9         -3.5270   -1.8824    0.5228 H         1 <0>         0.0538
     31 H10        -3.2030   -2.9352   -0.8937 H         1 <0>         0.0935
     32 H11        -3.6411   -4.0749    1.5188 H         1 <0>         0.0670
     33 H12        -2.3186   -4.7040    0.4834 H         1 <0>         0.0713
     34 H13         0.1311   -3.2361    0.9768 H         1 <0>         0.0588
     35 H14        -0.3445   -1.7626    1.8678 H         1 <0>         0.0675
     36 H15        -3.3928   -4.7099    3.3416 H         1 <0>         0.3999
     37 H16        -1.8102   -6.0281    6.7117 H         1 <0>         0.0576
     38 H17        -2.2031   -6.7021    5.1118 H         1 <0>         0.0555
     39 H18        -0.7898   -5.6377    5.3065 H         1 <0>         0.0583
@<TRIPOS>BOND
     1    1    2 1
     2    1   23 1
     3    1   24 1
     4    1   25 1
     5    2    3 1
     6    2   26 1
     7    2   27 1
     8    3    4 1
     9    3   28 1
    10    3   29 1
    11    4    8 1
    12    4    5 1
    13    4   20 1
    14    5    6 1
    15    5   30 1
    16    5   31 1
    17    6    7 1
    18    6   32 1
    19    6   33 1
    20    7    8 1
    21    7    9 am
    22    8   34 1
    23    8   35 1
    24    9   10 2
    25    9   11 am
    26   11   12 1
    27   11   36 1
    28   12   13 1
    29   12   14 1
    30   12   15 1
    31   14   37 1
    32   14   38 1
    33   14   39 1
    34   15   16 2
    35   15   19 1
    36   16   17 1
    37   17   18 2
    38   18   19 1
    39   20   21 2
    40   20   22 1
@<TRIPOS>MOLECULE
ZINC13271530
   55    56     0     0     0
SMALL
USER_CHARGES
(2S)-2-[3-[2-[(4-ethoxy-4-oxo-butyl)amino]-2-oxo-ethyl]sulfanyl-5-(2-thienyl)-1,2,4-triazol-4-yl]-3-methyl-butanoic acid
@<TRIPOS>ATOM
      1 C1         -3.9471   16.5770   -1.1497 C.3       1 <0>        -0.1535
      2 C2         -4.2296   15.1723   -1.6862 C.3       1 <0>         0.0612
      3 O1         -3.6734   14.1861   -0.7772 O.3       1 <0>        -0.3597
      4 C3         -3.8362   12.8947   -1.1052 C.2       1 <0>         0.4626
      5 O2         -4.4240   12.5983   -2.1184 O.2       1 <0>        -0.5077
      6 C4         -3.2859   11.8147   -0.2098 C.3       1 <0>        -0.1108
      7 C5         -3.6058   10.4436   -0.8087 C.3       1 <0>        -0.1225
      8 C6         -3.0470    9.3471    0.1003 C.3       1 <0>         0.1203
      9 N1         -3.3533    8.0342   -0.4731 N.am      1 <0>        -0.7282
     10 C7         -2.9559    6.9129    0.1602 C.2       1 <0>         0.5365
     11 O3         -2.3446    6.9907    1.2048 O.2       1 <0>        -0.5162
     12 C8         -3.2710    5.5624   -0.4297 C.3       1 <0>        -0.1700
     13 S1         -2.6100    4.2652    0.6457 S.3       1 <0>         0.1246
     14 C9         -3.1071    2.8363   -0.2574 C.2       1 <0>         0.1569
     15 N2         -3.7693    2.8232   -1.3918 N.2       1 <0>        -0.3027
     16 N3         -3.9731    1.6126   -1.7715 N.2       1 <0>        -0.2643
     17 C10        -3.4473    0.7757   -0.9043 C.2       1 <0>         0.2519
     18 N4         -2.8728    1.5350    0.0908 N.pl3     1 <0>        -0.4095
     19 C11        -2.1642    1.0497    1.2777 C.3       1 <0>         0.0848
     20 H1         -2.1494   -0.0402    1.2717 H         1 <0>         0.1017
     21 C12        -0.7288    1.5792    1.2668 C.3       1 <0>        -0.0924
     22 C13        -0.0127    1.0858    0.0080 C.3       1 <0>        -0.1495
     23 C14         0.0111    1.0724    2.5063 C.3       1 <0>        -0.1499
     24 C15        -2.8696    1.5357    2.5176 C.2       1 <0>         0.4614
     25 O4         -2.2843    2.2339    3.3111 O.co2     1 <0>        -0.5936
     26 C16        -3.4692   -0.6939   -0.9819 C.2       1 <0>        -0.0704
     27 C17        -4.2461   -1.5067   -1.7683 C.2       1 <0>        -0.1190
     28 C18        -4.0850   -2.8706   -1.6703 C.2       1 <0>        -0.1533
     29 C19        -3.1746   -3.3687   -0.7942 C.2       1 <0>        -0.1816
     30 S2         -2.4974   -1.8833   -0.0718 S.3       1 <0>         0.0813
     31 H2         -4.4051   16.6896   -0.1670 H         1 <0>         0.0672
     32 H3         -2.8702   16.7249   -1.0677 H         1 <0>         0.0670
     33 H4         -4.3646   17.3174   -1.8321 H         1 <0>         0.0798
     34 H5         -3.7716   15.0598   -2.6689 H         1 <0>         0.0700
     35 H6         -5.3064   15.0245   -1.7681 H         1 <0>         0.0702
     36 H7         -3.7403   11.8948    0.7777 H         1 <0>         0.1119
     37 H8         -2.2055   11.9302   -0.1231 H         1 <0>         0.1115
     38 H9         -3.1513   10.3635   -1.7962 H         1 <0>         0.0809
     39 H10        -4.6862   10.3281   -0.8955 H         1 <0>         0.0815
     40 H11        -3.5015    9.4272    1.0878 H         1 <0>         0.0736
     41 H12        -1.9666    9.4625    0.1871 H         1 <0>         0.0729
     42 H13        -3.8422    7.9720   -1.3086 H         1 <0>         0.4048
     43 H14        -2.8165    5.4823   -1.4172 H         1 <0>         0.1228
     44 H15        -4.3514    5.4469   -0.5164 H         1 <0>         0.1244
     45 H16        -0.7436    2.6691    1.2728 H         1 <0>         0.0886
     46 H17         0.0021   -0.0041    0.0020 H         1 <0>         0.0540
     47 H18         1.0099    1.4631    0.0003 H         1 <0>         0.0610
     48 H19        -0.5399    1.4469   -0.8751 H         1 <0>         0.0451
     49 H20        -0.4990    1.4239    3.4031 H         1 <0>         0.0982
     50 H21         0.0259   -0.0175    2.5003 H         1 <0>         0.0430
     51 H22         1.0337    1.4497    2.4986 H         1 <0>         0.0522
     52 H23        -4.9673   -1.0850   -2.4527 H         1 <0>         0.1435
     53 H24        -4.6786   -3.5363   -2.2794 H         1 <0>         0.1377
     54 H25        -2.9247   -4.3989   -0.5874 H         1 <0>         0.1878
     55 O5         -4.1481    1.1928    2.7403 O.co2     1 <0>        -0.7380
@<TRIPOS>BOND
     1    1    2 1
     2    1   31 1
     3    1   32 1
     4    1   33 1
     5    2    3 1
     6    2   34 1
     7    2   35 1
     8    3    4 1
     9    4    5 2
    10    4    6 1
    11    6    7 1
    12    6   36 1
    13    6   37 1
    14    7    8 1
    15    7   38 1
    16    7   39 1
    17    8    9 1
    18    8   40 1
    19    8   41 1
    20    9   10 am
    21    9   42 1
    22   10   11 2
    23   10   12 1
    24   12   13 1
    25   12   43 1
    26   12   44 1
    27   13   14 1
    28   14   18 1
    29   14   15 2
    30   15   16 1
    31   16   17 2
    32   17   18 1
    33   17   26 1
    34   18   19 1
    35   19   20 1
    36   19   21 1
    37   19   24 1
    38   21   22 1
    39   21   23 1
    40   21   45 1
    41   22   46 1
    42   22   47 1
    43   22   48 1
    44   23   49 1
    45   23   50 1
    46   23   51 1
    47   24   25 2
    48   24   55 1
    49   26   30 1
    50   26   27 2
    51   27   28 1
    52   27   52 1
    53   28   29 2
    54   28   53 1
    55   29   30 1
    56   29   54 1
@<TRIPOS>MOLECULE
ZINC35383559
   73    75     0     0     0
SMALL
USER_CHARGES

@<TRIPOS>ATOM
      1 C1         -1.6184  -11.7645  -10.0815 C.3       1 <0>        -0.1540
      2 C2         -1.4862  -10.9861   -8.7709 C.3       1 <0>        -0.1263
      3 C3         -2.3674  -11.6347   -7.7014 C.3       1 <0>        -0.1197
      4 C4         -2.2352  -10.8563   -6.3909 C.3       1 <0>        -0.1148
      5 C5         -3.1164  -11.5049   -5.3214 C.3       1 <0>        -0.0847
      6 C6         -2.9862  -10.7382   -4.0305 C.ar      1 <0>        -0.0627
      7 C7         -2.0083  -11.0890   -3.1168 C.ar      1 <0>        -0.0949
      8 C8         -1.8837  -10.3913   -1.9332 C.ar      1 <0>        -0.0920
      9 C9         -2.7469   -9.3295   -1.6585 C.ar      1 <0>        -0.1318
     10 C10        -3.7312   -8.9807   -2.5846 C.ar      1 <0>        -0.0712
     11 C11        -3.8414   -9.6831   -3.7669 C.ar      1 <0>        -0.1156
     12 C12        -2.6195   -8.5776   -0.3918 C.2       1 <0>         0.5698
     13 O1         -2.4767   -7.3707   -0.4132 O.2       1 <0>        -0.5203
     14 N1         -2.6615   -9.2305    0.7865 N.am      1 <0>        -0.5901
     15 C13        -2.6283   -8.4775    2.0427 C.3       1 <0>         0.1152
     16 C14        -4.0580   -8.2389    2.5323 C.3       1 <0>        -0.1390
     17 C15        -4.0233   -7.4525    3.8443 C.3       1 <0>        -0.1499
     18 C16        -2.7406  -10.6932    0.8111 C.3       1 <0>         0.0845
     19 C17        -1.3500  -11.2703    0.8775 C.2       1 <0>         0.4985
     20 O2         -0.3878  -10.5325    0.9019 O.2       1 <0>        -0.5129
     21 N2         -1.1758  -12.6064    0.9098 N.am      1 <0>        -0.6003
     22 C18         0.1760  -13.1674    0.9743 C.3       1 <0>         0.1496
     23 C19         0.5345  -13.4500    2.4105 C.ar      1 <0>        -0.1202
     24 C20         1.1468  -12.4739    3.1745 C.ar      1 <0>        -0.0660
     25 C21         1.4756  -12.7317    4.4917 C.ar      1 <0>        -0.1541
     26 C22         1.1917  -13.9682    5.0464 C.ar      1 <0>         0.1047
     27 C23         0.5784  -14.9450    4.2803 C.ar      1 <0>        -0.1551
     28 C24         0.2457  -14.6831    2.9648 C.ar      1 <0>        -0.0798
     29 F1          1.5131  -14.2215    6.3339 F         1 <0>        -0.1381
     30 C25        -2.3382  -13.4976    0.8803 C.3       1 <0>         0.1904
     31 C26        -2.5943  -13.9424   -0.5365 C.2       1 <0>        -0.1937
     32 C27        -2.1532  -15.0536   -1.1753 C.2       1 <0>        -0.0978
     33 C28        -2.5191  -15.2595   -2.4923 C.2       1 <0>        -0.1578
     34 C29        -3.3082  -14.3442   -3.1060 C.2       1 <0>        -0.1645
     35 S1         -3.5640  -13.1467   -1.8069 S.3       1 <0>         0.0641
     36 C30        -1.2765  -16.0494   -0.4605 C.3       1 <0>        -0.1093
     37 H1         -0.9906  -11.3024  -10.8434 H         1 <0>         0.0537
     38 H2         -1.3009  -12.7955   -9.9253 H         1 <0>         0.0531
     39 H3         -2.6578  -11.7500  -10.4094 H         1 <0>         0.0535
     40 H4         -0.4468  -11.0005   -8.4430 H         1 <0>         0.0607
     41 H5         -1.8036   -9.9551   -8.9270 H         1 <0>         0.0612
     42 H6         -3.4068  -11.6203   -8.0293 H         1 <0>         0.0621
     43 H7         -2.0499  -12.6657   -7.5453 H         1 <0>         0.0613
     44 H8         -1.1958  -10.8707   -6.0630 H         1 <0>         0.0637
     45 H9         -2.5526   -9.8253   -6.5470 H         1 <0>         0.0650
     46 H10        -4.1558  -11.4905   -5.6493 H         1 <0>         0.0741
     47 H11        -2.7989  -12.5359   -5.1653 H         1 <0>         0.0722
     48 H12        -1.3412  -11.9111   -3.3304 H         1 <0>         0.1214
     49 H13        -1.1202  -10.6664   -1.2206 H         1 <0>         0.1256
     50 H14        -4.4023   -8.1601   -2.3780 H         1 <0>         0.1280
     51 H15        -4.5998   -9.4115   -4.4863 H         1 <0>         0.1279
     52 H16        -2.0775   -9.0456    2.7924 H         1 <0>         0.0762
     53 H17        -2.1356   -7.5191    1.8789 H         1 <0>         0.0927
     54 H18        -4.6088   -7.6708    1.7826 H         1 <0>         0.0671
     55 H19        -4.5507   -9.1973    2.6962 H         1 <0>         0.0617
     56 H20        -5.0419   -7.2825    4.1931 H         1 <0>         0.0590
     57 H21        -3.4726   -8.0206    4.5940 H         1 <0>         0.0556
     58 H22        -3.5306   -6.4941    3.6805 H         1 <0>         0.0584
     59 H23        -3.3083  -11.0117    1.6853 H         1 <0>         0.1104
     60 H24        -3.2374  -11.0454   -0.0929 H         1 <0>         0.1135
     61 H25         0.2124  -14.0941    0.4017 H         1 <0>         0.0931
     62 H26         0.8859  -12.4538    0.5563 H         1 <0>         0.0999
     63 H27         1.3685  -11.5096    2.7415 H         1 <0>         0.1372
     64 H28         1.9543  -11.9692    5.0882 H         1 <0>         0.1363
     65 H29         0.3567  -15.9100    4.7118 H         1 <0>         0.1369
     66 H30        -0.2366  -15.4434    2.3683 H         1 <0>         0.1315
     67 H31        -2.1436  -14.3692    1.5053 H         1 <0>         0.1059
     68 H32        -3.2123  -12.9673    1.2583 H         1 <0>         0.0959
     69 H33        -2.1809  -16.1364   -3.0244 H         1 <0>         0.1335
     70 H34        -3.6873  -14.3419   -4.1173 H         1 <0>         0.1839
     71 H35        -1.8924  -16.8557   -0.0623 H         1 <0>         0.0730
     72 H36        -0.5481  -16.4600   -1.1598 H         1 <0>         0.0693
     73 H37        -0.7547  -15.5527    0.3575 H         1 <0>         0.0656
@<TRIPOS>BOND
     1    1    2 1
     2    1   37 1
     3    1   38 1
     4    1   39 1
     5    2    3 1
     6    2   40 1
     7    2   41 1
     8    3    4 1
     9    3   42 1
    10    3   43 1
    11    4    5 1
    12    4   44 1
    13    4   45 1
    14    5    6 1
    15    5   46 1
    16    5   47 1
    17    6   11 ar
    18    6    7 ar
    19    7    8 ar
    20    7   48 1
    21    8    9 ar
    22    8   49 1
    23    9   10 ar
    24    9   12 1
    25   10   11 ar
    26   10   50 1
    27   11   51 1
    28   12   13 2
    29   12   14 am
    30   14   15 1
    31   14   18 1
    32   15   16 1
    33   15   52 1
    34   15   53 1
    35   16   17 1
    36   16   54 1
    37   16   55 1
    38   17   56 1
    39   17   57 1
    40   17   58 1
    41   18   19 1
    42   18   59 1
    43   18   60 1
    44   19   20 2
    45   19   21 am
    46   21   22 1
    47   21   30 1
    48   22   23 1
    49   22   61 1
    50   22   62 1
    51   23   28 ar
    52   23   24 ar
    53   24   25 ar
    54   24   63 1
    55   25   26 ar
    56   25   64 1
    57   26   27 ar
    58   26   29 1
    59   27   28 ar
    60   27   65 1
    61   28   66 1
    62   30   31 1
    63   30   67 1
    64   30   68 1
    65   31   35 1
    66   31   32 2
    67   32   33 1
    68   32   36 1
    69   33   34 2
    70   33   69 1
    71   34   35 1
    72   34   70 1
    73   36   71 1
    74   36   72 1
    75   36   73 1
@<TRIPOS>MOLECULE
ZINC39996940
   56    57     0     0     0
SMALL
USER_CHARGES

@<TRIPOS>ATOM
      1 C1          0.4738    1.4638    0.4190 C.3       1 <0>        -0.1536
      2 C2          0.4874   -0.0658    0.3856 C.3       1 <0>        -0.1263
      3 C3          1.0738   -0.5417   -0.9450 C.3       1 <0>        -0.1190
      4 C4          1.0874   -2.0712   -0.9784 C.3       1 <0>        -0.1182
      5 C5          1.6737   -2.5471   -2.3091 C.3       1 <0>        -0.1171
      6 C6          1.6873   -4.0767   -2.3425 C.3       1 <0>         0.0554
      7 O1          2.2350   -4.5212   -3.5853 O.3       1 <0>        -0.3026
      8 C7          2.3187   -5.8629   -3.7774 C.ar      1 <0>         0.1141
      9 C8          1.8759   -6.7327   -2.7888 C.ar      1 <0>        -0.1723
     10 C9          1.9581   -8.0940   -2.9766 C.ar      1 <0>        -0.0918
     11 C10         2.4897   -8.6053   -4.1689 C.ar      1 <0>        -0.0759
     12 C11         2.9357   -7.7260   -5.1656 C.ar      1 <0>        -0.1439
     13 C12         2.8438   -6.3629   -4.9692 C.ar      1 <0>         0.0944
     14 O2          3.2702   -5.5068   -5.9360 O.3       1 <0>        -0.3073
     15 C13         3.7966   -6.0876   -7.1308 C.3       1 <0>         0.0238
     16 C14         2.5794  -10.0532   -4.3723 C.2       1 <0>         0.0131
     17 C15         1.6650  -10.8912   -3.7720 C.2       1 <0>        -0.0327
     18 C16         0.5437  -10.3424   -3.0704 C.1       1 <0>         0.2784
     19 N1         -0.3458   -9.9071   -2.5138 N.1       1 <0>        -0.4330
     20 C17         1.8404  -12.3479   -3.8518 C.2       1 <0>         0.4678
     21 O3          2.9000  -12.8665   -4.5148 O.3       1 <0>        -0.6271
     22 N2          0.9681  -13.1473   -3.2792 N.2       1 <0>        -0.6024
     23 C18         1.1303  -14.4940   -3.3529 C.2       1 <0>         0.3658
     24 N3          2.0870  -15.2090   -3.9392 N.2       1 <0>        -0.3424
     25 N4          2.0852  -16.4700   -3.9118 N.2       1 <0>        -0.2431
     26 C19         1.1309  -17.1574   -3.2977 C.2       1 <0>        -0.0673
     27 S1          0.1217  -15.8126   -2.6823 S.3       1 <0>        -0.0634
     28 S2          0.9201  -18.8987   -3.1299 S.3       1 <0>        -0.0008
     29 C20         2.3431  -19.5998   -4.0097 C.3       1 <0>        -0.0796
     30 C21         2.2841  -21.1041   -3.9421 C.2       1 <0>        -0.1400
     31 C22         2.1171  -21.8030   -5.0375 C.2       1 <0>        -0.1693
     32 H1          1.4922    1.8385    0.3160 H         1 <0>         0.0533
     33 H2         -0.1365    1.8397   -0.4021 H         1 <0>         0.0534
     34 H3          0.0561    1.8028    1.3670 H         1 <0>         0.0529
     35 H4          1.0977   -0.4417    1.2068 H         1 <0>         0.0612
     36 H5         -0.5309   -0.4405    0.4886 H         1 <0>         0.0614
     37 H6          0.4635   -0.1657   -1.7662 H         1 <0>         0.0631
     38 H7          2.0921   -0.1669   -1.0481 H         1 <0>         0.0630
     39 H8          1.6977   -2.4472   -0.1573 H         1 <0>         0.0654
     40 H9          0.0690   -2.4460   -0.8754 H         1 <0>         0.0656
     41 H10         1.0634   -2.1712   -3.1302 H         1 <0>         0.0736
     42 H11         2.6921   -2.1724   -2.4121 H         1 <0>         0.0736
     43 H12         2.2976   -4.4526   -1.5213 H         1 <0>         0.0625
     44 H13         0.6690   -4.4514   -2.2394 H         1 <0>         0.0626
     45 H14         1.4662   -6.3397   -1.8700 H         1 <0>         0.1369
     46 H15         1.6137   -8.7676   -2.2059 H         1 <0>         0.1335
     47 H16         3.3461   -8.1140   -6.0861 H         1 <0>         0.1445
     48 H17         4.0992   -5.2963   -7.8166 H         1 <0>         0.0991
     49 H18         4.6605   -6.7050   -6.8846 H         1 <0>         0.0571
     50 H19         3.0317   -6.7045   -7.6025 H         1 <0>         0.0565
     51 H20         3.3622  -10.4639   -4.9927 H         1 <0>         0.1620
     52 H21         2.3186  -19.2817   -5.0520 H         1 <0>         0.0938
     53 H22         3.2654  -19.2511   -3.5450 H         1 <0>         0.0993
     54 H23         2.3795  -21.6061   -2.9906 H         1 <0>         0.1182
     55 H24         2.0748  -22.8811   -4.9890 H         1 <0>         0.1034
     56 H25         2.0217  -21.3010   -5.9890 H         1 <0>         0.1004
@<TRIPOS>BOND
     1    1    2 1
     2    1   32 1
     3    1   33 1
     4    1   34 1
     5    2    3 1
     6    2   35 1
     7    2   36 1
     8    3    4 1
     9    3   37 1
    10    3   38 1
    11    4    5 1
    12    4   39 1
    13    4   40 1
    14    5    6 1
    15    5   41 1
    16    5   42 1
    17    6    7 1
    18    6   43 1
    19    6   44 1
    20    7    8 1
    21    8   13 ar
    22    8    9 ar
    23    9   10 ar
    24    9   45 1
    25   10   11 ar
    26   10   46 1
    27   11   12 ar
    28   11   16 1
    29   12   13 ar
    30   12   47 1
    31   13   14 1
    32   14   15 1
    33   15   48 1
    34   15   49 1
    35   15   50 1
    36   16   17 2
    37   16   51 1
    38   17   18 1
    39   17   20 1
    40   18   19 3
    41   20   21 1
    42   20   22 2
    43   22   23 1
    44   23   27 1
    45   23   24 2
    46   24   25 1
    47   25   26 2
    48   26   27 1
    49   26   28 1
    50   28   29 1
    51   29   30 1
    52   29   52 1
    53   29   53 1
    54   30   31 2
    55   30   54 1
    56   31   55 1
    57   31   56 1
@<TRIPOS>MOLECULE
ZINC40083424
   73    75     0     0     0
SMALL
USER_CHARGES

@<TRIPOS>ATOM
      1 C1          0.5882    1.7919    0.1110 C.3       1 <0>        -0.1491
      2 C2          0.5836    0.2761    0.3190 C.3       1 <0>        -0.1196
      3 C3         -0.8187   -0.2719    0.0466 C.3       1 <0>        -0.1439
      4 C4         -0.8232   -1.7877    0.2545 C.3       1 <0>         0.1379
      5 N1         -2.1660   -2.3123   -0.0062 N.am      1 <0>        -0.6085
      6 C5         -3.2427   -2.4587    0.9803 C.3       1 <0>         0.2610
      7 H1         -2.9327   -3.1366    1.7756 H         1 <0>         0.0696
      8 C6         -4.4217   -3.0381    0.2340 C.2       1 <0>        -0.4804
      9 C7         -4.0303   -3.1975   -1.0515 C.2       1 <0>         0.2796
     10 C8         -2.6322   -2.7398   -1.1937 C.2       1 <0>         0.5044
     11 O1         -1.9968   -2.7506   -2.2293 O.2       1 <0>        -0.5350
     12 O2         -4.7983   -3.6930   -2.0492 O.3       1 <0>        -0.6123
     13 C9         -5.7368   -3.3647    0.7947 C.2       1 <0>         0.4816
     14 O3         -5.9281   -3.2698    1.9928 O.2       1 <0>        -0.5235
     15 C10        -6.8284   -3.8087   -0.0941 C.ar      1 <0>        -0.1147
     16 C11        -7.2023   -5.1559   -0.1264 C.ar      1 <0>        -0.0504
     17 C12        -8.2207   -5.5657   -0.9566 C.ar      1 <0>        -0.2155
     18 C13        -8.8773   -4.6423   -1.7630 C.ar      1 <0>         0.1241
     19 C14        -8.5088   -3.3021   -1.7340 C.ar      1 <0>        -0.1524
     20 C15        -7.4953   -2.8827   -0.9018 C.ar      1 <0>         0.0010
     21 C16        -7.1008   -1.4287   -0.8666 C.3       1 <0>        -0.1095
     22 O4         -9.8803   -5.0507   -2.5808 O.3       1 <0>        -0.3156
     23 C17       -10.1405   -6.4546   -2.6371 C.3       1 <0>         0.0862
     24 C18       -11.2054   -6.7272   -3.6680 C.2       1 <0>        -0.1505
     25 C19       -11.0570   -7.7126   -4.5183 C.2       1 <0>        -0.1776
     26 C20        -3.6030   -1.1141    1.5574 C.ar      1 <0>        -0.0579
     27 C21        -3.8034   -0.0343    0.7176 C.ar      1 <0>        -0.0882
     28 C22        -4.1342    1.2012    1.2421 C.ar      1 <0>        -0.1769
     29 C23        -4.2660    1.3594    2.6123 C.ar      1 <0>         0.0912
     30 C24        -4.0647    0.2725    3.4576 C.ar      1 <0>         0.0963
     31 C25        -3.7381   -0.9643    2.9250 C.ar      1 <0>        -0.1475
     32 O5         -4.1929    0.4227    4.8032 O.3       1 <0>        -0.3090
     33 C26        -3.8619   -0.7048    5.6163 C.3       1 <0>         0.0526
     34 C27        -4.0906   -0.3566    7.0885 C.3       1 <0>        -0.1484
     35 O6         -4.5908    2.5743    3.1300 O.3       1 <0>        -0.3085
     36 C28        -4.7820    3.6445    2.2026 C.3       1 <0>         0.0586
     37 C29        -5.1386    4.9223    2.9648 C.3       1 <0>        -0.1218
     38 C30        -5.3433    6.0682    1.9719 C.3       1 <0>        -0.1493
     39 H2          1.5872    2.1822    0.3050 H         1 <0>         0.0502
     40 H3          0.3027    2.0185   -0.9162 H         1 <0>         0.0526
     41 H4         -0.1221    2.2547    0.7961 H         1 <0>         0.0528
     42 H5          1.2940   -0.1868   -0.3661 H         1 <0>         0.0599
     43 H6          0.8691    0.0494    1.3462 H         1 <0>         0.0597
     44 H7         -1.5290    0.1910    0.7317 H         1 <0>         0.0758
     45 H8         -1.1042   -0.0452   -0.9806 H         1 <0>         0.0640
     46 H9         -0.1129   -2.2505   -0.4305 H         1 <0>         0.0756
     47 H10        -0.5377   -2.0143    1.2818 H         1 <0>         0.0722
     48 H11        -6.6924   -5.8738    0.4990 H         1 <0>         0.1180
     49 H12        -8.5101   -6.6059   -0.9822 H         1 <0>         0.1199
     50 H13        -9.0210   -2.5883   -2.3621 H         1 <0>         0.1237
     51 H14        -6.3624   -1.2336   -1.6443 H         1 <0>         0.0776
     52 H15        -7.9811   -0.8091   -1.0377 H         1 <0>         0.0585
     53 H16        -6.6735   -1.1917    0.1078 H         1 <0>         0.0670
     54 H17        -9.2269   -6.9828   -2.9101 H         1 <0>         0.0669
     55 H18       -10.4823   -6.8002   -1.6615 H         1 <0>         0.0690
     56 H19       -12.0910   -6.1101   -3.7057 H         1 <0>         0.1178
     57 H20       -10.1715   -8.3297   -4.4805 H         1 <0>         0.0994
     58 H21       -11.8202   -7.9080   -5.2570 H         1 <0>         0.1052
     59 H22        -3.7010   -0.1563   -0.3506 H         1 <0>         0.1192
     60 H23        -4.2895    2.0433    0.5839 H         1 <0>         0.1274
     61 H24        -3.5851   -1.8104    3.5786 H         1 <0>         0.1317
     62 H25        -4.4932   -1.5495    5.3404 H         1 <0>         0.0644
     63 H26        -2.8153   -0.9682    5.4636 H         1 <0>         0.0572
     64 H27        -3.5255    0.5404    7.3417 H         1 <0>         0.0633
     65 H28        -5.1522   -0.1775    7.2588 H         1 <0>         0.0636
     66 H29        -3.7570   -1.1848    7.7138 H         1 <0>         0.0743
     67 H30        -3.8640    3.8033    1.6367 H         1 <0>         0.0575
     68 H31        -5.5917    3.3918    1.5180 H         1 <0>         0.0589
     69 H32        -6.0566    4.7635    3.5307 H         1 <0>         0.0721
     70 H33        -4.3289    5.1750    3.6494 H         1 <0>         0.0711
     71 H34        -4.4254    6.2269    1.4060 H         1 <0>         0.0565
     72 H35        -6.1530    5.8155    1.2873 H         1 <0>         0.0574
     73 H36        -5.5974    6.9785    2.5149 H         1 <0>         0.0616
@<TRIPOS>BOND
     1    1    2 1
     2    1   39 1
     3    1   40 1
     4    1   41 1
     5    2    3 1
     6    2   42 1
     7    2   43 1
     8    3    4 1
     9    3   44 1
    10    3   45 1
    11    4    5 1
    12    4   46 1
    13    4   47 1
    14    5   10 am
    15    5    6 1
    16    6    7 1
    17    6    8 1
    18    6   26 1
    19    8    9 2
    20    8   13 1
    21    9   10 1
    22    9   12 1
    23   10   11 2
    24   13   14 2
    25   13   15 1
    26   15   20 ar
    27   15   16 ar
    28   16   17 ar
    29   16   48 1
    30   17   18 ar
    31   17   49 1
    32   18   19 ar
    33   18   22 1
    34   19   20 ar
    35   19   50 1
    36   20   21 1
    37   21   51 1
    38   21   52 1
    39   21   53 1
    40   22   23 1
    41   23   24 1
    42   23   54 1
    43   23   55 1
    44   24   25 2
    45   24   56 1
    46   25   57 1
    47   25   58 1
    48   26   31 ar
    49   26   27 ar
    50   27   28 ar
    51   27   59 1
    52   28   29 ar
    53   28   60 1
    54   29   30 ar
    55   29   35 1
    56   30   31 ar
    57   30   32 1
    58   31   61 1
    59   32   33 1
    60   33   34 1
    61   33   62 1
    62   33   63 1
    63   34   64 1
    64   34   65 1
    65   34   66 1
    66   35   36 1
    67   36   37 1
    68   36   67 1
    69   36   68 1
    70   37   38 1
    71   37   69 1
    72   37   70 1
    73   38   71 1
    74   38   72 1
    75   38   73 1
@<TRIPOS>MOLECULE
ZINC40101040
   72    74     0     0     0
SMALL
USER_CHARGES

@<TRIPOS>ATOM
      1 C1          0.0728    1.8817   -0.7148 C.3       1 <0>        -0.1502
      2 C2          0.1529    0.3604   -0.5725 C.3       1 <0>        -0.1207
      3 C3          0.9239   -0.2228   -1.7584 C.3       1 <0>        -0.1371
      4 C4          1.0039   -1.7441   -1.6161 C.3       1 <0>         0.1366
      5 N1          1.7421   -2.3026   -2.7516 N.am      1 <0>        -0.6108
      6 C5          1.1634   -2.7364   -4.0286 C.3       1 <0>         0.2676
      7 H1          0.6742   -1.8970   -4.5227 H         1 <0>         0.0687
      8 C6          2.3179   -3.2321   -4.8677 C.2       1 <0>        -0.5009
      9 C7          3.4363   -3.0848   -4.1194 C.2       1 <0>         0.2642
     10 C8          3.0712   -2.5031   -2.8103 C.2       1 <0>         0.5114
     11 O1          3.8552   -2.2464   -1.9183 O.2       1 <0>        -0.5359
     12 O2          4.6893   -3.4135   -4.5092 O.3       1 <0>        -0.6534
     13 C9          2.2416   -3.7694   -6.2294 C.2       1 <0>         0.5038
     14 O3          2.5148   -4.9363   -6.4391 O.2       1 <0>        -0.4676
     15 C10         1.8326   -2.8932   -7.3481 C.ar      1 <0>        -0.0972
     16 C11         1.6397   -1.5264   -7.1336 C.ar      1 <0>        -0.1003
     17 C12         1.2581   -0.7122   -8.1796 C.ar      1 <0>        -0.0992
     18 C13         1.0651   -1.2446   -9.4415 C.ar      1 <0>        -0.1952
     19 C14         1.2545   -2.6019   -9.6645 C.ar      1 <0>         0.1107
     20 C15         1.6435   -3.4276   -8.6233 C.ar      1 <0>        -0.1058
     21 O4          1.0633   -3.1193  -10.9066 O.3       1 <0>        -0.3172
     22 C16         0.6683   -2.2090  -11.9348 C.3       1 <0>         0.0551
     23 C17         0.5028   -2.9687  -13.2526 C.3       1 <0>        -0.1519
     24 C18         0.1738   -3.8492   -3.7975 C.ar      1 <0>        -0.0682
     25 C19         0.4937   -4.8911   -2.9468 C.ar      1 <0>        -0.0827
     26 C20        -0.4107   -5.9143   -2.7316 C.ar      1 <0>        -0.1717
     27 C21        -1.6411   -5.8969   -3.3686 C.ar      1 <0>         0.0931
     28 C22        -1.9632   -4.8480   -4.2245 C.ar      1 <0>         0.0940
     29 C23        -1.0540   -3.8231   -4.4321 C.ar      1 <0>        -0.1637
     30 O5         -3.1695   -4.8264   -4.8520 O.3       1 <0>        -0.3097
     31 C24        -3.4795   -3.6632   -5.6220 C.3       1 <0>         0.0278
     32 O6         -2.5317   -6.9029   -3.1583 O.3       1 <0>        -0.3081
     33 C25        -2.1329   -7.9466   -2.2674 C.3       1 <0>         0.0568
     34 C26        -3.2559   -8.9799   -2.1573 C.3       1 <0>        -0.1121
     35 C27        -2.8289  -10.0974   -1.2035 C.3       1 <0>        -0.0948
     36 C28        -2.6628   -9.5283    0.2070 C.3       1 <0>        -0.1530
     37 C29        -3.8980  -11.1919   -1.1892 C.3       1 <0>        -0.1457
     38 H2          1.0799    2.2984   -0.7338 H         1 <0>         0.0536
     39 H3         -0.4420    2.1333   -1.6420 H         1 <0>         0.0526
     40 H4         -0.4764    2.2972    0.1301 H         1 <0>         0.0509
     41 H5          0.6678    0.1089    0.3547 H         1 <0>         0.0618
     42 H6         -0.8541   -0.0562   -0.5535 H         1 <0>         0.0608
     43 H7          0.4090    0.0287   -2.6856 H         1 <0>         0.0640
     44 H8          1.9309    0.1938   -1.7774 H         1 <0>         0.0668
     45 H9          1.5188   -1.9957   -0.6888 H         1 <0>         0.0760
     46 H10        -0.0031   -2.1608   -1.5970 H         1 <0>         0.0735
     47 H11         1.7888   -1.1076   -6.1494 H         1 <0>         0.1359
     48 H12         1.1092    0.3444   -8.0126 H         1 <0>         0.1247
     49 H13         0.7657   -0.6022  -10.2564 H         1 <0>         0.1236
     50 H14         1.7955   -4.4828   -8.7965 H         1 <0>         0.1363
     51 H15        -0.2786   -1.7425  -11.6630 H         1 <0>         0.0591
     52 H16         1.4318   -1.4400  -12.0522 H         1 <0>         0.0595
     53 H17         1.4497   -3.4352  -13.5244 H         1 <0>         0.0659
     54 H18        -0.2607   -3.7377  -13.1352 H         1 <0>         0.0655
     55 H19         0.2015   -2.2743  -14.0369 H         1 <0>         0.0753
     56 H20         1.4523   -4.9058   -2.4497 H         1 <0>         0.1225
     57 H21        -0.1580   -6.7273   -2.0671 H         1 <0>         0.1293
     58 H22        -1.3031   -3.0060   -5.0930 H         1 <0>         0.1317
     59 H23        -4.5007   -3.7367   -5.9961 H         1 <0>         0.0944
     60 H24        -3.3852   -2.7767   -4.9950 H         1 <0>         0.0527
     61 H25        -2.7892   -3.5891   -6.4623 H         1 <0>         0.0536
     62 H26        -1.2330   -8.4275   -2.6509 H         1 <0>         0.0594
     63 H27        -1.9286   -7.5257   -1.2830 H         1 <0>         0.0609
     64 H28        -4.1558   -8.4990   -1.7738 H         1 <0>         0.0723
     65 H29        -3.4602   -9.4008   -3.1418 H         1 <0>         0.0729
     66 H30        -1.8816  -10.5193   -1.5390 H         1 <0>         0.0731
     67 H31        -2.3586  -10.3245    0.8865 H         1 <0>         0.0553
     68 H32        -1.9011   -8.7486    0.1968 H         1 <0>         0.0573
     69 H33        -3.6101   -9.1065    0.5425 H         1 <0>         0.0560
     70 H34        -4.0164  -11.5973   -2.1940 H         1 <0>         0.0556
     71 H35        -3.5938  -11.9880   -0.5097 H         1 <0>         0.0556
     72 H36        -4.8454  -10.7700   -0.8536 H         1 <0>         0.0551
@<TRIPOS>BOND
     1    1    2 1
     2    1   38 1
     3    1   39 1
     4    1   40 1
     5    2    3 1
     6    2   41 1
     7    2   42 1
     8    3    4 1
     9    3   43 1
    10    3   44 1
    11    4    5 1
    12    4   45 1
    13    4   46 1
    14    5   10 am
    15    5    6 1
    16    6    7 1
    17    6    8 1
    18    6   24 1
    19    8    9 2
    20    8   13 1
    21    9   10 1
    22    9   12 1
    23   10   11 2
    24   13   14 2
    25   13   15 1
    26   15   20 ar
    27   15   16 ar
    28   16   17 ar
    29   16   47 1
    30   17   18 ar
    31   17   48 1
    32   18   19 ar
    33   18   49 1
    34   19   20 ar
    35   19   21 1
    36   20   50 1
    37   21   22 1
    38   22   23 1
    39   22   51 1
    40   22   52 1
    41   23   53 1
    42   23   54 1
    43   23   55 1
    44   24   29 ar
    45   24   25 ar
    46   25   26 ar
    47   25   56 1
    48   26   27 ar
    49   26   57 1
    50   27   28 ar
    51   27   32 1
    52   28   29 ar
    53   28   30 1
    54   29   58 1
    55   30   31 1
    56   31   59 1
    57   31   60 1
    58   31   61 1
    59   32   33 1
    60   33   34 1
    61   33   62 1
    62   33   63 1
    63   34   35 1
    64   34   64 1
    65   34   65 1
    66   35   36 1
    67   35   37 1
    68   35   66 1
    69   36   67 1
    70   36   68 1
    71   36   69 1
    72   37   70 1
    73   37   71 1
    74   37   72 1
@<TRIPOS>MOLECULE
ZINC09972728
   56    58     0     0     0
SMALL
USER_CHARGES
2,3-dibenzoyloxy-4-(2-methoxycarbonylphenyl)amino-4-oxo-butanoic acid
@<TRIPOS>ATOM
      1 C1         -2.8560   -4.5437   -3.6184 C.3       1 <0>         0.0350
      2 O1         -3.8266   -3.7342   -2.9037 O.3       1 <0>        -0.3522
      3 C2         -3.3697   -2.6151   -2.3079 C.2       1 <0>         0.5154
      4 O2         -2.1924   -2.3239   -2.3836 O.2       1 <0>        -0.5077
      5 C3         -4.2979   -1.7445   -1.5645 C.ar      1 <0>        -0.1742
      6 C4         -5.6301   -2.1271   -1.3860 C.ar      1 <0>        -0.0382
      7 C5         -6.4925   -1.3089   -0.6897 C.ar      1 <0>        -0.1605
      8 C6         -6.0460   -0.1070   -0.1639 C.ar      1 <0>        -0.0558
      9 C7         -4.7320    0.2822   -0.3278 C.ar      1 <0>        -0.1492
     10 C8         -3.8493   -0.5266   -1.0311 C.ar      1 <0>         0.2313
     11 N1         -2.5242   -0.1338   -1.2014 N.am      1 <0>        -0.6604
     12 C9         -2.1985    1.1734   -1.1623 C.2       1 <0>         0.5113
     13 O3         -3.0696    2.0132   -1.0798 O.2       1 <0>        -0.4955
     14 C10        -0.7519    1.5916   -1.2213 C.3       1 <0>         0.1034
     15 H1         -0.2856    1.1629   -2.1083 H         1 <0>         0.1403
     16 C11        -0.0252    1.0918    0.0289 C.3       1 <0>         0.0556
     17 H2         -0.0105    0.0019    0.0293 H         1 <0>         0.1111
     18 C12         1.3887    1.6133    0.0303 C.2       1 <0>         0.4676
     19 O4          1.7469    2.3857    0.8875 O.co2     1 <0>        -0.6019
     20 O5         -0.7174    1.5670    1.2136 O.3       1 <0>        -0.3220
     21 C13        -0.6500    0.7921    2.3134 C.2       1 <0>         0.5061
     22 O6         -0.0298   -0.2520    2.2836 O.2       1 <0>        -0.5062
     23 C14        -1.3301    1.2120    3.5557 C.ar      1 <0>        -0.1110
     24 C15        -2.0390    2.4143    3.5951 C.ar      1 <0>        -0.0582
     25 C16        -2.6762    2.7978    4.7569 C.ar      1 <0>        -0.1341
     26 C17        -2.6048    1.9995    5.8847 C.ar      1 <0>        -0.0922
     27 C18        -1.8993    0.8095    5.8543 C.ar      1 <0>        -0.1349
     28 C19        -1.2622    0.4112    4.6975 C.ar      1 <0>        -0.0581
     29 O7         -0.6689    3.0400   -1.2828 O.3       1 <0>        -0.2989
     30 C20        -0.6686    3.6010   -2.5076 C.2       1 <0>         0.5111
     31 O8         -0.7359    2.8995   -3.4970 O.2       1 <0>        -0.5070
     32 C21        -0.5865    5.0694   -2.6473 C.ar      1 <0>        -0.1140
     33 C22        -0.5149    5.8790   -1.5120 C.ar      1 <0>        -0.0531
     34 C23        -0.4326    7.2490   -1.6499 C.ar      1 <0>        -0.1337
     35 C24        -0.4325    7.8220   -2.9094 C.ar      1 <0>        -0.0892
     36 C25        -0.5090    7.0259   -4.0385 C.ar      1 <0>        -0.1365
     37 C26        -0.5860    5.6542   -3.9152 C.ar      1 <0>        -0.0559
     38 H3         -3.3542   -5.4121   -4.0494 H         1 <0>         0.1027
     39 H4         -2.4046   -3.9515   -4.4144 H         1 <0>         0.0660
     40 H5         -2.0805   -4.8753   -2.9279 H         1 <0>         0.0664
     41 H6         -5.9830   -3.0631   -1.7931 H         1 <0>         0.1405
     42 H7         -7.5218   -1.6059   -0.5526 H         1 <0>         0.1316
     43 H8         -6.7296    0.5275    0.3807 H         1 <0>         0.1332
     44 H9         -4.3908    1.2185    0.0886 H         1 <0>         0.1568
     45 H10        -1.8356   -0.8010   -1.3481 H         1 <0>         0.4283
     46 H11        -2.0917    3.0406    2.7168 H         1 <0>         0.1405
     47 H12        -3.2285    3.7254    4.7875 H         1 <0>         0.1296
     48 H13        -3.1024    2.3063    6.7929 H         1 <0>         0.1258
     49 H14        -1.8476    0.1911    6.7382 H         1 <0>         0.1295
     50 H15        -0.7119   -0.5178    4.6751 H         1 <0>         0.1362
     51 H16        -0.5193    5.4333   -0.5283 H         1 <0>         0.1433
     52 H17        -0.3730    7.8762   -0.7727 H         1 <0>         0.1312
     53 H18        -0.3721    8.8955   -3.0116 H         1 <0>         0.1267
     54 H19        -0.5082    7.4796   -5.0186 H         1 <0>         0.1302
     55 H20        -0.6460    5.0340   -4.7974 H         1 <0>         0.1364
     56 O9          2.2501    1.2196   -0.9209 O.co2     1 <0>        -0.7425
@<TRIPOS>BOND
     1    1    2 1
     2    1   38 1
     3    1   39 1
     4    1   40 1
     5    2    3 1
     6    3    4 2
     7    3    5 1
     8    5   10 ar
     9    5    6 ar
    10    6    7 ar
    11    6   41 1
    12    7    8 ar
    13    7   42 1
    14    8    9 ar
    15    8   43 1
    16    9   10 ar
    17    9   44 1
    18   10   11 1
    19   11   12 am
    20   11   45 1
    21   12   13 2
    22   12   14 1
    23   14   15 1
    24   14   16 1
    25   14   29 1
    26   16   17 1
    27   16   18 1
    28   16   20 1
    29   18   19 2
    30   18   56 1
    31   20   21 1
    32   21   22 2
    33   21   23 1
    34   23   28 ar
    35   23   24 ar
    36   24   25 ar
    37   24   46 1
    38   25   26 ar
    39   25   47 1
    40   26   27 ar
    41   26   48 1
    42   27   28 ar
    43   27   49 1
    44   28   50 1
    45   29   30 1
    46   30   31 2
    47   30   32 1
    48   32   37 ar
    49   32   33 ar
    50   33   34 ar
    51   33   51 1
    52   34   35 ar
    53   34   52 1
    54   35   36 ar
    55   35   53 1
    56   36   37 ar
    57   36   54 1
    58   37   55 1
@<TRIPOS>MOLECULE
ZINC13219266
   55    57     0     0     0
SMALL
USER_CHARGES
2-[3-[2-[2-[4-(difluoromethoxy)phenyl]ethylamino]-2-oxo-ethyl]sulfanyl-5-(4-methoxyphenyl)-1,2,4-triazol-4-yl]acetic acid
@<TRIPOS>ATOM
      1 C1          1.1001    6.2789    0.2363 C.3       1 <0>         0.0267
      2 O1         -0.0175    5.5956   -0.3348 O.3       1 <0>        -0.3162
      3 C2         -0.0103    4.2385   -0.2685 C.ar      1 <0>         0.1337
      4 C3         -1.0664    3.5134   -0.8045 C.ar      1 <0>        -0.1443
      5 C4         -1.0630    2.1365   -0.7390 C.ar      1 <0>        -0.0625
      6 C5          0.0040    1.4710   -0.1327 C.ar      1 <0>        -0.0458
      7 C6          1.0610    2.2038    0.4101 C.ar      1 <0>        -0.0385
      8 C7          1.0529    3.5803    0.3353 C.ar      1 <0>        -0.2115
      9 C8          0.0117   -0.0054   -0.0602 C.2       1 <0>         0.2325
     10 N1          1.0596   -0.7716    0.1350 N.2       1 <0>        -0.2826
     11 N2          0.7049   -2.0068    0.1419 N.2       1 <0>        -0.3037
     12 C9         -0.5914   -2.1052   -0.0486 C.2       1 <0>         0.1500
     13 N3         -1.0790   -0.8356   -0.1788 N.pl3     1 <0>        -0.4168
     14 C10        -2.4721   -0.4407   -0.4013 C.3       1 <0>         0.0411
     15 C11        -2.7566   -0.4146   -1.8809 C.2       1 <0>         0.4545
     16 O2         -1.8851   -0.6968   -2.6688 O.co2     1 <0>        -0.6066
     17 S1         -1.5276   -3.5964   -0.1160 S.3       1 <0>         0.0865
     18 C12        -0.2079   -4.8080    0.1420 C.3       1 <0>        -0.1516
     19 C13        -0.7909   -6.1975    0.1228 C.2       1 <0>         0.5353
     20 O3         -1.9814   -6.3534   -0.0486 O.2       1 <0>        -0.5183
     21 N4          0.0107   -7.2671    0.2959 N.am      1 <0>        -0.7282
     22 C14        -0.5561   -8.6179    0.2772 C.3       1 <0>         0.1245
     23 C15         0.5595   -9.6421    0.4953 C.3       1 <0>        -0.0891
     24 C16        -0.0235  -11.0316    0.4760 C.ar      1 <0>        -0.1040
     25 C17        -0.4632  -11.6119    1.6514 C.ar      1 <0>        -0.0745
     26 C18        -1.0032  -12.8834    1.6355 C.ar      1 <0>        -0.1877
     27 C19        -1.0937  -13.5824    0.4406 C.ar      1 <0>         0.1013
     28 C20        -0.6466  -13.0001   -0.7365 C.ar      1 <0>        -0.1315
     29 C21        -0.1126  -11.7262   -0.7162 C.ar      1 <0>        -0.0776
     30 O4         -1.6199  -14.8353    0.4232 O.3       1 <0>        -0.3214
     31 C22        -2.0599  -15.3716    1.6725 C.3       1 <0>         0.4117
     32 F1         -0.9809  -15.4293    2.5611 F         1 <0>        -0.1989
     33 F2         -3.0598  -14.5514    2.2058 F         1 <0>        -0.1973
     34 H1          1.1701    6.0378    1.2970 H         1 <0>         0.0552
     35 H2          2.0140    5.9659   -0.2686 H         1 <0>         0.0557
     36 H3          0.9686    7.3542    0.1160 H         1 <0>         0.0979
     37 H4         -1.8913    4.0290   -1.2737 H         1 <0>         0.1379
     38 H5         -1.8849    1.5733   -1.1557 H         1 <0>         0.1452
     39 H6          1.8861    1.6929    0.8840 H         1 <0>         0.1371
     40 H7          1.8726    4.1478    0.7507 H         1 <0>         0.1325
     41 H8         -3.1348   -1.1576    0.0835 H         1 <0>         0.1045
     42 H9         -2.6402    0.5510    0.0186 H         1 <0>         0.1089
     43 H10         0.5324   -4.7136   -0.6524 H         1 <0>         0.1260
     44 H11         0.2681   -4.6270    1.1057 H         1 <0>         0.1240
     45 H12         0.9628   -7.1425    0.4329 H         1 <0>         0.4042
     46 H13        -1.2964   -8.7124    1.0716 H         1 <0>         0.0714
     47 H14        -1.0321   -8.7989   -0.6866 H         1 <0>         0.0725
     48 H15         1.2998   -9.5476   -0.2991 H         1 <0>         0.0830
     49 H16         1.0355   -9.4611    1.4590 H         1 <0>         0.0818
     50 H17        -0.3885  -11.0690    2.5821 H         1 <0>         0.1303
     51 H18        -1.3506  -13.3345    2.5533 H         1 <0>         0.1334
     52 H19        -0.7157  -13.5424   -1.6680 H         1 <0>         0.1355
     53 H20         0.2353  -11.2723   -1.6324 H         1 <0>         0.1355
     54 H21        -2.4570  -16.3748    1.5176 H         1 <0>         0.1820
     55 O5         -3.9782   -0.0778   -2.3236 O.co2     1 <0>        -0.7437
@<TRIPOS>BOND
     1    1    2 1
     2    1   34 1
     3    1   35 1
     4    1   36 1
     5    2    3 1
     6    3    8 ar
     7    3    4 ar
     8    4    5 ar
     9    4   37 1
    10    5    6 ar
    11    5   38 1
    12    6    7 ar
    13    6    9 1
    14    7    8 ar
    15    7   39 1
    16    8   40 1
    17    9   13 1
    18    9   10 2
    19   10   11 1
    20   11   12 2
    21   12   13 1
    22   12   17 1
    23   13   14 1
    24   14   15 1
    25   14   41 1
    26   14   42 1
    27   15   16 2
    28   15   55 1
    29   17   18 1
    30   18   19 1
    31   18   43 1
    32   18   44 1
    33   19   20 2
    34   19   21 am
    35   21   22 1
    36   21   45 1
    37   22   23 1
    38   22   46 1
    39   22   47 1
    40   23   24 1
    41   23   48 1
    42   23   49 1
    43   24   29 ar
    44   24   25 ar
    45   25   26 ar
    46   25   50 1
    47   26   27 ar
    48   26   51 1
    49   27   28 ar
    50   27   30 1
    51   28   29 ar
    52   28   52 1
    53   29   53 1
    54   30   31 1
    55   31   32 1
    56   31   33 1
    57   31   54 1
@<TRIPOS>MOLECULE
ZINC13366448
   58    59     0     0     0
SMALL
USER_CHARGES
4-[[4-[(E)-3-(4-diethylaminophenyl)prop-2-enoyl]phenyl]sulfonylamino]butanoic acid
@<TRIPOS>ATOM
      1 C1          2.6560   12.3796   -5.5983 C.3       1 <0>        -0.1740
      2 C2          1.1543   12.6719   -5.6102 C.3       1 <0>         0.1139
      3 N1          0.5427   12.0386   -6.7811 N.pl3     1 <0>        -0.6191
      4 C3          0.4470   12.7733   -8.0449 C.3       1 <0>         0.1141
      5 C4         -0.8752   13.5419   -8.0892 C.3       1 <0>        -0.1731
      6 C5          0.0532   10.7401   -6.6930 C.ar      1 <0>         0.2418
      7 C6         -0.5278   10.1400   -7.8075 C.ar      1 <0>        -0.2075
      8 C7         -1.0101    8.8647   -7.7255 C.ar      1 <0>        -0.0342
      9 C8         -0.9196    8.1601   -6.5178 C.ar      1 <0>        -0.1585
     10 C9         -0.3391    8.7698   -5.3977 C.ar      1 <0>        -0.0367
     11 C10         0.1448   10.0437   -5.4902 C.ar      1 <0>        -0.2052
     12 C11        -1.4369    6.7896   -6.4246 C.2       1 <0>         0.0290
     13 C12        -1.3484    6.1109   -5.2570 C.2       1 <0>        -0.2730
     14 C13        -1.8477    4.7881   -5.1671 C.2       1 <0>         0.4247
     15 O1         -2.3563    4.2618   -6.1402 O.2       1 <0>        -0.4626
     16 C14        -1.7510    4.0462   -3.8909 C.ar      1 <0>        -0.1058
     17 C15        -2.2420    2.7426   -3.7989 C.ar      1 <0>        -0.0878
     18 C16        -2.1491    2.0565   -2.6057 C.ar      1 <0>        -0.0288
     19 C17        -1.5709    2.6577   -1.5016 C.ar      1 <0>        -0.6526
     20 C18        -1.0874    3.9516   -1.5845 C.ar      1 <0>        -0.0317
     21 C19        -1.1689    4.6467   -2.7732 C.ar      1 <0>        -0.0970
     22 S1         -1.4563    1.7742    0.0186 S.o2      1 <0>         2.6932
     23 O2         -2.4755    0.7845   -0.0090 O.2       1 <0>        -0.9607
     24 O3         -1.3685    2.7488    1.0490 O.2       1 <0>        -0.9537
     25 N2         -0.0111    0.9658    0.0074 N.pl3     1 <0>        -1.1107
     26 C20         1.2475    1.7155   -0.0006 C.3       1 <0>         0.1115
     27 C21         2.4022    0.7774    0.3567 C.3       1 <0>        -0.1047
     28 C22         3.7167    1.5604    0.3483 C.3       1 <0>        -0.1574
     29 C23         4.8540    0.6364    0.7003 C.2       1 <0>         0.4590
     30 O4          4.6356   -0.5288    0.9338 O.co2     1 <0>        -0.6409
     31 H1          2.8161   11.3023   -5.5538 H         1 <0>         0.0608
     32 H2          3.1108   12.7773   -6.5055 H         1 <0>         0.0562
     33 H3          3.1110   12.8508   -4.7270 H         1 <0>         0.0668
     34 H4          0.9942   13.7492   -5.6546 H         1 <0>         0.0753
     35 H5          0.6995   12.2741   -4.7029 H         1 <0>         0.0788
     36 H6          1.2778   13.4748   -8.1212 H         1 <0>         0.0756
     37 H7          0.4870   12.0708   -8.8775 H         1 <0>         0.0779
     38 H8         -1.7060   12.8404   -8.0129 H         1 <0>         0.0596
     39 H9         -0.9152   14.2443   -7.2567 H         1 <0>         0.0566
     40 H10        -0.9464   14.0885   -9.0295 H         1 <0>         0.0654
     41 H11        -0.5968   10.6837   -8.7381 H         1 <0>         0.1259
     42 H12        -1.4607    8.4003   -8.5902 H         1 <0>         0.1266
     43 H13        -0.2713    8.2320   -4.4636 H         1 <0>         0.1281
     44 H14         0.5955   10.5132   -4.6283 H         1 <0>         0.1274
     45 H15        -1.8880    6.3228   -7.2877 H         1 <0>         0.1324
     46 H16        -0.8973    6.5776   -4.3939 H         1 <0>         0.1333
     47 H17        -2.6932    2.2722   -4.6600 H         1 <0>         0.1428
     48 H18        -2.5289    1.0481   -2.5331 H         1 <0>         0.1466
     49 H19        -0.6412    4.4166   -0.7179 H         1 <0>         0.1484
     50 H20        -0.7872    5.6550   -2.8378 H         1 <0>         0.1414
     51 H21         0.0021   -0.0041    0.0020 H         1 <0>         0.4214
     52 H22         1.4141    2.1353   -0.9927 H         1 <0>         0.0625
     53 H23         1.1948    2.5218    0.7309 H         1 <0>         0.0788
     54 H24         2.2356    0.3577    1.3487 H         1 <0>         0.0719
     55 H25         2.4549   -0.0289   -0.3749 H         1 <0>         0.0696
     56 H26         3.8832    1.9802   -0.6437 H         1 <0>         0.0661
     57 H27         3.6639    2.3667    1.0799 H         1 <0>         0.0678
     58 O5          6.1096    1.1079    0.7543 O.co2     1 <0>        -0.7757
@<TRIPOS>BOND
     1    1    2 1
     2    1   31 1
     3    1   32 1
     4    1   33 1
     5    2    3 1
     6    2   34 1
     7    2   35 1
     8    3    4 1
     9    3    6 1
    10    4    5 1
    11    4   36 1
    12    4   37 1
    13    5   38 1
    14    5   39 1
    15    5   40 1
    16    6   11 ar
    17    6    7 ar
    18    7    8 ar
    19    7   41 1
    20    8    9 ar
    21    8   42 1
    22    9   10 ar
    23    9   12 1
    24   10   11 ar
    25   10   43 1
    26   11   44 1
    27   12   13 2
    28   12   45 1
    29   13   14 1
    30   13   46 1
    31   14   15 2
    32   14   16 1
    33   16   21 ar
    34   16   17 ar
    35   17   18 ar
    36   17   47 1
    37   18   19 ar
    38   18   48 1
    39   19   20 ar
    40   19   22 1
    41   20   21 ar
    42   20   49 1
    43   21   50 1
    44   22   23 2
    45   22   24 2
    46   22   25 1
    47   25   26 1
    48   25   51 1
    49   26   27 1
    50   26   52 1
    51   26   53 1
    52   27   28 1
    53   27   54 1
    54   27   55 1
    55   28   29 1
    56   28   56 1
    57   28   57 1
    58   29   30 2
    59   29   58 1
@<TRIPOS>MOLECULE
ZINC38898462
   64    66     0     0     0
SMALL
USER_CHARGES

@<TRIPOS>ATOM
      1 C1          0.9156   -4.7988    3.4446 C.3       1 <0>        -0.1523
      2 C2          0.6047   -3.9986    2.1781 C.3       1 <0>        -0.1223
      3 C3          1.3338   -4.6245    0.9876 C.3       1 <0>        -0.1202
      4 C4          1.0229   -3.8244   -0.2789 C.3       1 <0>         0.0653
      5 O1          1.7040   -4.4090   -1.3909 O.3       1 <0>        -0.3485
      6 C5          1.5344   -3.8196   -2.5908 C.2       1 <0>         0.5120
      7 O2          0.8277   -2.8362   -2.6901 O.2       1 <0>        -0.5072
      8 C6          2.2066   -4.3681   -3.7832 C.ar      1 <0>        -0.1480
      9 C7          3.0155   -5.5029   -3.6717 C.ar      1 <0>        -0.0376
     10 C8          3.6410   -6.0124   -4.7870 C.ar      1 <0>        -0.1372
     11 C9          3.4694   -5.3991   -6.0242 C.ar      1 <0>         0.1891
     12 C10         2.6654   -4.2692   -6.1388 C.ar      1 <0>        -0.1602
     13 C11         2.0318   -3.7579   -5.0289 C.ar      1 <0>        -0.0307
     14 N1          4.1049   -5.9176   -7.1515 N.am      1 <0>        -0.6762
     15 C12         4.2942   -7.2471   -7.2667 C.2       1 <0>         0.5184
     16 O3          3.8283   -7.9999   -6.4378 O.2       1 <0>        -0.5039
     17 C13         5.0848   -7.7980   -8.4253 C.3       1 <0>        -0.0704
     18 C14         5.1485   -9.3000   -8.3210 C.2       1 <0>        -0.2559
     19 C15         4.2534  -10.0807   -8.9940 C.2       1 <0>         0.2111
     20 N2          4.3174  -11.4060   -8.8964 N.2       1 <0>        -0.5413
     21 C16         5.2360  -11.9960   -8.1559 C.2       1 <0>         0.3742
     22 N3          6.1546  -11.2685   -7.4620 N.am      1 <0>        -0.6138
     23 H1          6.8237  -11.7172   -6.9219 H         1 <0>         0.4219
     24 C17         6.1343   -9.9203   -7.5336 C.2       1 <0>         0.5430
     25 O4          6.9531   -9.2529   -6.9230 O.2       1 <0>        -0.5304
     26 S1          5.2747  -13.7551   -8.0626 S.3       1 <0>         0.0052
     27 C18         3.8988  -14.2812   -9.1212 C.3       1 <0>        -0.0527
     28 C19         3.8186  -15.7860   -9.1301 C.ar      1 <0>        -0.0502
     29 C20         4.5247  -16.5099  -10.0734 C.ar      1 <0>        -0.1339
     30 C21         4.4533  -17.8905  -10.0842 C.ar      1 <0>        -0.0782
     31 C22         3.6755  -18.5504   -9.1522 C.ar      1 <0>        -0.1961
     32 C23         2.9663  -17.8266   -8.2050 C.ar      1 <0>         0.1287
     33 C24         3.0445  -16.4413   -8.1925 C.ar      1 <0>        -0.1294
     34 O5          2.2007  -18.4734   -7.2872 O.3       1 <0>        -0.3155
     35 C25         2.1721  -19.9005   -7.3562 C.3       1 <0>         0.0259
     36 C26         3.1904   -9.4400   -9.8487 C.3       1 <0>        -0.1124
     37 H2          0.5823   -5.8284    3.3149 H         1 <0>         0.0561
     38 H3          1.9899   -4.7851    3.6285 H         1 <0>         0.0561
     39 H4          0.3961   -4.3529    4.2928 H         1 <0>         0.0577
     40 H5         -0.4696   -4.0123    1.9943 H         1 <0>         0.0657
     41 H6          0.9380   -2.9690    2.3079 H         1 <0>         0.0657
     42 H7          2.4081   -4.6108    1.1714 H         1 <0>         0.0749
     43 H8          1.0005   -5.6542    0.8578 H         1 <0>         0.0749
     44 H9         -0.0514   -3.8381   -0.4628 H         1 <0>         0.0688
     45 H10         1.3562   -2.7947   -0.1492 H         1 <0>         0.0689
     46 H11         3.1497   -5.9790   -2.7117 H         1 <0>         0.1417
     47 H12         4.2660   -6.8890   -4.7016 H         1 <0>         0.1428
     48 H13         2.5350   -3.7953   -7.1004 H         1 <0>         0.1379
     49 H14         1.4041   -2.8837   -5.1194 H         1 <0>         0.1427
     50 H15         4.4107   -5.3216   -7.8530 H         1 <0>         0.4154
     51 H16         4.6005   -7.5190   -9.3610 H         1 <0>         0.1120
     52 H17         6.0950   -7.3891   -8.4030 H         1 <0>         0.1152
     53 H18         2.9659  -13.8699   -8.7357 H         1 <0>         0.1142
     54 H19         4.0629  -13.9201  -10.1365 H         1 <0>         0.1154
     55 H20         5.1326  -15.9958  -10.8031 H         1 <0>         0.1300
     56 H21         5.0056  -18.4536  -10.8219 H         1 <0>         0.1309
     57 H22         3.6195  -19.6289   -9.1615 H         1 <0>         0.1316
     58 H23         2.4971  -15.8758   -7.4530 H         1 <0>         0.1360
     59 H24         1.7880  -20.2097   -8.3282 H         1 <0>         0.0572
     60 H25         3.1811  -20.2909   -7.2232 H         1 <0>         0.0572
     61 H26         1.5255  -20.2894   -6.5695 H         1 <0>         0.1029
     62 H27         3.5673   -9.3142  -10.8637 H         1 <0>         0.0916
     63 H28         2.3056  -10.0764   -9.8660 H         1 <0>         0.0868
     64 H29         2.9294   -8.4660   -9.4347 H         1 <0>         0.0794
@<TRIPOS>BOND
     1    1    2 1
     2    1   37 1
     3    1   38 1
     4    1   39 1
     5    2    3 1
     6    2   40 1
     7    2   41 1
     8    3    4 1
     9    3   42 1
    10    3   43 1
    11    4    5 1
    12    4   44 1
    13    4   45 1
    14    5    6 1
    15    6    7 2
    16    6    8 1
    17    8   13 ar
    18    8    9 ar
    19    9   10 ar
    20    9   46 1
    21   10   11 ar
    22   10   47 1
    23   11   12 ar
    24   11   14 1
    25   12   13 ar
    26   12   48 1
    27   13   49 1
    28   14   15 am
    29   14   50 1
    30   15   16 2
    31   15   17 1
    32   17   18 1
    33   17   51 1
    34   17   52 1
    35   18   24 1
    36   18   19 2
    37   19   20 1
    38   19   36 1
    39   20   21 2
    40   21   22 1
    41   21   26 1
    42   22   23 1
    43   22   24 am
    44   24   25 2
    45   26   27 1
    46   27   28 1
    47   27   53 1
    48   27   54 1
    49   28   33 ar
    50   28   29 ar
    51   29   30 ar
    52   29   55 1
    53   30   31 ar
    54   30   56 1
    55   31   32 ar
    56   31   57 1
    57   32   33 ar
    58   32   34 1
    59   33   58 1
    60   34   35 1
    61   35   59 1
    62   35   60 1
    63   35   61 1
    64   36   62 1
    65   36   63 1
    66   36   64 1
@<TRIPOS>MOLECULE
ZINC18139028
   48    49     0     0     0
SMALL
USER_CHARGES

@<TRIPOS>ATOM
      1 C1         -0.0173    1.4248    0.0099 C.3       1 <0>         0.0330
      2 O1          0.0021   -0.0041    0.0020 O.3       1 <0>        -0.3551
      3 C2          0.5984   -0.5997   -1.0427 C.2       1 <0>         0.4596
      4 O2          1.0877    0.0699   -1.9214 O.2       1 <0>        -0.5043
      5 C3          0.6575   -2.1036   -1.1196 C.3       1 <0>        -0.1077
      6 C4          1.3848   -2.5205   -2.3995 C.3       1 <0>        -0.1278
      7 C5          1.4449   -4.0473   -2.4777 C.3       1 <0>         0.1268
      8 N1          2.1413   -4.4466   -3.7032 N.pl3     1 <0>        -0.6899
      9 C6          2.3140   -5.7532   -3.9849 C.2       1 <0>         0.5652
     10 S1          1.7198   -6.9464   -2.9106 S.2       1 <0>        -0.6318
     11 N2          2.9547   -6.1205   -5.1124 N.pl3     1 <0>        -0.4539
     12 N3          3.4410   -5.1440   -5.9915 N.am      1 <0>        -0.5682
     13 C7          4.0816   -5.5113   -7.1190 C.2       1 <0>         0.5707
     14 O3          4.2375   -6.6902   -7.3732 O.2       1 <0>        -0.4784
     15 C8          4.5934   -4.4838   -8.0441 C.ar      1 <0>        -0.2182
     16 C9          4.4218   -3.1278   -7.7534 C.ar      1 <0>        -0.0397
     17 C10         4.9027   -2.1726   -8.6216 C.ar      1 <0>        -0.2310
     18 C11         5.5567   -2.5488   -9.7844 C.ar      1 <0>        -0.0347
     19 C12         5.7342   -3.8833  -10.0857 C.ar      1 <0>        -0.2620
     20 C13         5.2612   -4.8614   -9.2194 C.ar      1 <0>         0.3359
     21 N4          5.4435   -6.2054   -9.5175 N.2       1 <0>        -1.0308
     22 S2          6.2321   -6.6460  -10.9055 S.o2      1 <0>         2.6291
     23 O4          5.4091   -6.2344  -11.9883 O.2       1 <0>        -1.0180
     24 O5          7.5776   -6.2119  -10.7634 O.2       1 <0>        -1.0182
     25 C14         6.2726   -8.4071  -10.9449 C.2       1 <0>        -0.6697
     26 C15         5.3783   -9.2696  -11.4867 C.2       1 <0>        -0.0404
     27 C16         5.6188  -10.6279  -11.3984 C.2       1 <0>        -0.1808
     28 C17         6.7419  -11.0573  -10.7727 C.2       1 <0>        -0.1663
     29 S3          7.5063   -9.5183  -10.2886 S.3       1 <0>         0.1435
     30 H1          1.0053    1.8021    0.0021 H         1 <0>         0.0609
     31 H2         -0.5445    1.7859   -0.8732 H         1 <0>         0.0608
     32 H3         -0.5275    1.7763    0.9067 H         1 <0>         0.1019
     33 H4          1.1948   -2.4908   -0.2539 H         1 <0>         0.1144
     34 H5         -0.3550   -2.5070   -1.1292 H         1 <0>         0.1144
     35 H6          0.8476   -2.1333   -3.2653 H         1 <0>         0.0820
     36 H7          2.3973   -2.1171   -2.3900 H         1 <0>         0.0821
     37 H8          1.9821   -4.4346   -1.6119 H         1 <0>         0.0918
     38 H9          0.4324   -4.4508   -2.4872 H         1 <0>         0.0917
     39 H10         2.4780   -3.7705   -4.3119 H         1 <0>         0.3945
     40 H11         3.0790   -7.0609   -5.3151 H         1 <0>         0.4584
     41 H12         3.3166   -4.2037   -5.7887 H         1 <0>         0.4105
     42 H13         3.9123   -2.8291   -6.8492 H         1 <0>         0.1026
     43 H14         4.7691   -1.1251   -8.3953 H         1 <0>         0.1113
     44 H15         5.9295   -1.7922  -10.4591 H         1 <0>         0.1111
     45 H16         6.2445   -4.1681  -10.9939 H         1 <0>         0.1068
     46 H17         4.4908   -8.9011  -11.9797 H         1 <0>         0.1422
     47 H18         4.9221  -11.3365  -11.8214 H         1 <0>         0.1368
     48 H19         7.0869  -12.0681  -10.6122 H         1 <0>         0.1889
@<TRIPOS>BOND
     1    1    2 1
     2    1   30 1
     3    1   31 1
     4    1   32 1
     5    2    3 1
     6    3    4 2
     7    3    5 1
     8    5    6 1
     9    5   33 1
    10    5   34 1
    11    6    7 1
    12    6   35 1
    13    6   36 1
    14    7    8 1
    15    7   37 1
    16    7   38 1
    17    8    9 1
    18    8   39 1
    19    9   10 2
    20    9   11 1
    21   11   12 1
    22   11   40 1
    23   12   13 am
    24   12   41 1
    25   13   14 2
    26   13   15 1
    27   15   20 ar
    28   15   16 ar
    29   16   17 ar
    30   16   42 1
    31   17   18 ar
    32   17   43 1
    33   18   19 ar
    34   18   44 1
    35   19   20 ar
    36   19   45 1
    37   20   21 1
    38   21   22 1
    39   22   23 2
    40   22   24 2
    41   22   25 1
    42   25   29 1
    43   25   26 2
    44   26   27 1
    45   26   46 1
    46   27   28 2
    47   27   47 1
    48   28   29 1
    49   28   48 1
@<TRIPOS>MOLECULE
ZINC01737605
   51    53     0     0     0
SMALL
USER_CHARGES
2-[2-(2-oxo-4-phenyl-chromen-7-yl)oxypropanoylamino]pentanedioic acid
@<TRIPOS>ATOM
      1 C1          2.7234   -0.0294   -1.1775 C.3       1 <0>        -0.1772
      2 C2          2.4586    0.9229   -0.0096 C.3       1 <0>         0.0643
      3 H1          2.3824    0.3512    0.9153 H         1 <0>         0.1022
      4 C3          1.1691    1.6651   -0.2491 C.2       1 <0>         0.5185
      5 O1          1.1825    2.8667   -0.4128 O.2       1 <0>        -0.5278
      6 N1          0.0010    0.9935   -0.2813 N.am      1 <0>        -0.6828
      7 C4         -1.2519    1.7142   -0.5201 C.3       1 <0>         0.1018
      8 H2         -1.0716    2.5372   -1.2117 H         1 <0>         0.0875
      9 C5         -2.2833    0.7582   -1.1228 C.3       1 <0>        -0.0865
     10 C6         -1.8094    0.3016   -2.5040 C.3       1 <0>        -0.1528
     11 C7         -2.8253   -0.6401   -3.0976 C.2       1 <0>         0.4607
     12 O2         -3.8256   -0.9175   -2.4794 O.co2     1 <0>        -0.6380
     13 C8         -1.7742    2.2594    0.7841 C.2       1 <0>         0.4647
     14 O3         -1.1626    2.0659    1.8080 O.co2     1 <0>        -0.6412
     15 O4          3.5340    1.8581    0.0957 O.3       1 <0>        -0.2668
     16 C9          4.6278    1.4632    0.7962 C.ar      1 <0>         0.2084
     17 C10         4.7075    0.1573    1.2751 C.ar      1 <0>        -0.2272
     18 C11         5.8015   -0.2535    1.9815 C.ar      1 <0>        -0.0130
     19 C12         6.8469    0.6407    2.2251 C.ar      1 <0>        -0.1989
     20 C13         8.0385    0.2246    2.9834 C.2       1 <0>         0.0932
     21 C14         9.0344    1.1611    3.1866 C.2       1 <0>        -0.2670
     22 C15         8.8797    2.4591    2.6710 C.2       1 <0>         0.5159
     23 O5          9.7623    3.2787    2.8551 O.2       1 <0>        -0.4745
     24 O6          7.7863    2.8212    1.9817 O.3       1 <0>        -0.2690
     25 C16         6.7740    1.9594    1.7450 C.ar      1 <0>         0.1950
     26 C17         5.6583    2.3601    1.0245 C.ar      1 <0>        -0.1780
     27 C18         8.1658   -1.1519    3.5105 C.ar      1 <0>        -0.0682
     28 C19         7.1271   -1.7175    4.2516 C.ar      1 <0>        -0.0950
     29 C20         7.2498   -3.0036    4.7354 C.ar      1 <0>        -0.1179
     30 C21         8.4041   -3.7284    4.4971 C.ar      1 <0>        -0.1068
     31 C22         9.4398   -3.1715    3.7679 C.ar      1 <0>        -0.1208
     32 C23         9.3275   -1.8885    3.2737 C.ar      1 <0>        -0.0920
     33 H3          2.7996    0.5423   -2.1024 H         1 <0>         0.0788
     34 H4          3.6561   -0.5662   -1.0043 H         1 <0>         0.0705
     35 H5          1.9031   -0.7427   -1.2578 H         1 <0>         0.0882
     36 H6         -0.0097    0.0325   -0.1504 H         1 <0>         0.3930
     37 H7         -2.3979   -0.1093   -0.4728 H         1 <0>         0.0585
     38 H8         -3.2409    1.2700   -1.2180 H         1 <0>         0.0864
     39 H9         -1.6947    1.1691   -3.1539 H         1 <0>         0.0612
     40 H10        -0.8517   -0.2102   -2.4087 H         1 <0>         0.0570
     41 H11         3.8994   -0.5339    1.0867 H         1 <0>         0.1483
     42 H12         5.8586   -1.2669    2.3505 H         1 <0>         0.1426
     43 H13         9.9249    0.8973    3.7379 H         1 <0>         0.1607
     44 H14         5.5917    3.3695    0.6461 H         1 <0>         0.1561
     45 H15         6.2276   -1.1510    4.4424 H         1 <0>         0.1325
     46 H16         6.4450   -3.4440    5.3052 H         1 <0>         0.1302
     47 H17         8.4969   -4.7334    4.8815 H         1 <0>         0.1253
     48 H18        10.3380   -3.7427    3.5851 H         1 <0>         0.1272
     49 H19        10.1365   -1.4550    2.7044 H         1 <0>         0.1285
     50 O7         -2.6188   -1.1706   -4.3132 O.co2     1 <0>        -0.7899
     51 O8         -2.9189    2.9601    0.8083 O.co2     1 <0>        -0.7656
@<TRIPOS>BOND
     1    1    2 1
     2    1   33 1
     3    1   34 1
     4    1   35 1
     5    2    3 1
     6    2    4 1
     7    2   15 1
     8    4    5 2
     9    4    6 am
    10    6    7 1
    11    6   36 1
    12    7    8 1
    13    7    9 1
    14    7   13 1
    15    9   10 1
    16    9   37 1
    17    9   38 1
    18   10   11 1
    19   10   39 1
    20   10   40 1
    21   11   12 2
    22   11   50 1
    23   13   14 2
    24   13   51 1
    25   15   16 1
    26   16   26 ar
    27   16   17 ar
    28   17   18 ar
    29   17   41 1
    30   18   19 ar
    31   18   42 1
    32   19   25 ar
    33   19   20 1
    34   20   21 2
    35   20   27 1
    36   21   22 1
    37   21   43 1
    38   22   23 2
    39   22   24 1
    40   24   25 1
    41   25   26 ar
    42   26   44 1
    43   27   32 ar
    44   27   28 ar
    45   28   29 ar
    46   28   45 1
    47   29   30 ar
    48   29   46 1
    49   30   31 ar
    50   30   47 1
    51   31   32 ar
    52   31   48 1
    53   32   49 1
@<TRIPOS>MOLECULE
ZINC13235235
   48    50     0     0     0
SMALL
USER_CHARGES
5-[[2-[1-(4-isopropylphenyl)tetrazol-5-yl]sulfanylacetyl]amino]benzene-1,3-dicarboxylic acid
@<TRIPOS>ATOM
      1 C1         -9.3118    6.5487    1.5071 C.3       1 <0>        -0.1467
      2 C2         -9.0436    6.0497    0.0858 C.3       1 <0>        -0.0575
      3 C3         -8.1275    7.0388   -0.6376 C.3       1 <0>        -0.1491
      4 C4         -8.3776    4.6991    0.1449 C.ar      1 <0>        -0.0626
      5 C5         -8.9854    3.6039   -0.4410 C.ar      1 <0>        -0.1020
      6 C6         -8.3776    2.3647   -0.3880 C.ar      1 <0>        -0.0915
      7 C7         -7.1552    2.2194    0.2538 C.ar      1 <0>         0.1187
      8 C8         -6.5500    3.3198    0.8457 C.ar      1 <0>        -0.1057
      9 C9         -7.1603    4.5575    0.7853 C.ar      1 <0>        -0.0884
     10 N1         -6.5358    0.9627    0.3092 N.pl3     1 <0>        -0.3153
     11 C10        -5.2061    0.6963    0.2625 C.2       1 <0>         0.2038
     12 N2         -5.0712   -0.6095    0.3506 N.2       1 <0>        -0.3320
     13 N3         -6.2201   -1.1753    0.4440 N.2       1 <0>        -0.0275
     14 N4         -7.1590   -0.2924    0.4232 N.2       1 <0>        -0.0826
     15 S1         -3.9057    1.8766    0.1187 S.3       1 <0>         0.1424
     16 C11        -2.4737    0.7697    0.1332 C.3       1 <0>        -0.1601
     17 C12        -1.2097    1.5821    0.0175 C.2       1 <0>         0.5200
     18 O1         -1.2710    2.7905   -0.0665 O.2       1 <0>        -0.5003
     19 N5         -0.0111    0.9658    0.0074 N.am      1 <0>        -0.6486
     20 C13         1.1657    1.7240   -0.0083 C.ar      1 <0>         0.0789
     21 C14         1.2089    2.9199   -0.7096 C.ar      1 <0>        -0.0756
     22 C15         2.3794    3.6811   -0.7235 C.ar      1 <0>        -0.1275
     23 C16         3.5083    3.2330   -0.0399 C.ar      1 <0>        -0.0317
     24 C17         3.4628    2.0282    0.6593 C.ar      1 <0>        -0.1264
     25 C18         2.2873    1.2746    0.6727 C.ar      1 <0>        -0.0990
     26 C19         4.6569    1.5492    1.3859 C.2       1 <0>         0.4981
     27 O2          4.6164    0.4992    1.9953 O.co2     1 <0>        -0.6468
     28 C20         2.4228    4.9578   -1.4662 C.2       1 <0>         0.4973
     29 O3          1.4385    5.3477   -2.0617 O.co2     1 <0>        -0.6412
     30 H1         -9.9644    5.8440    2.0224 H         1 <0>         0.0559
     31 H2         -8.3686    6.6320    2.0469 H         1 <0>         0.0605
     32 H3         -9.7935    7.5256    1.4643 H         1 <0>         0.0599
     33 H4         -9.9868    5.9664   -0.4541 H         1 <0>         0.0799
     34 H5         -7.9364    6.6833   -1.6501 H         1 <0>         0.0592
     35 H6         -8.6092    8.0157   -0.6804 H         1 <0>         0.0600
     36 H7         -7.1843    7.1221   -0.0977 H         1 <0>         0.0625
     37 H8         -9.9363    3.7175   -0.9401 H         1 <0>         0.1353
     38 H9         -8.8531    1.5095   -0.8452 H         1 <0>         0.1361
     39 H10        -5.6012    3.2090    1.3495 H         1 <0>         0.1427
     40 H11        -6.6884    5.4145    1.2426 H         1 <0>         0.1410
     41 H12        -2.5398    0.0789   -0.7074 H         1 <0>         0.1318
     42 H13        -2.4593    0.2063    1.0662 H         1 <0>         0.1330
     43 H14         0.0361   -0.0030    0.0069 H         1 <0>         0.4069
     44 H15         0.3349    3.2647   -1.2422 H         1 <0>         0.1376
     45 H16         4.4162    3.8177   -0.0523 H         1 <0>         0.1412
     46 H17         2.2514    0.3409    1.2143 H         1 <0>         0.1231
     47 O4          5.7905    2.2768    1.3724 O.co2     1 <0>        -0.7522
     48 O5          3.5539    5.6892   -1.4829 O.co2     1 <0>        -0.7555
@<TRIPOS>BOND
     1    1    2 1
     2    1   30 1
     3    1   31 1
     4    1   32 1
     5    2    3 1
     6    2    4 1
     7    2   33 1
     8    3   34 1
     9    3   35 1
    10    3   36 1
    11    4    9 ar
    12    4    5 ar
    13    5    6 ar
    14    5   37 1
    15    6    7 ar
    16    6   38 1
    17    7    8 ar
    18    7   10 1
    19    8    9 ar
    20    8   39 1
    21    9   40 1
    22   10   14 1
    23   10   11 1
    24   11   12 2
    25   11   15 1
    26   12   13 1
    27   13   14 2
    28   15   16 1
    29   16   17 1
    30   16   41 1
    31   16   42 1
    32   17   18 2
    33   17   19 am
    34   19   20 1
    35   19   43 1
    36   20   25 ar
    37   20   21 ar
    38   21   22 ar
    39   21   44 1
    40   22   23 ar
    41   22   28 1
    42   23   24 ar
    43   23   45 1
    44   24   25 ar
    45   24   26 1
    46   25   46 1
    47   26   27 2
    48   26   47 1
    49   28   29 2
    50   28   48 1
@<TRIPOS>MOLECULE
ZINC16927920
   47    49     0     0     0
SMALL
USER_CHARGES
2-[[(5Z)-5-[[3-(carboxymethyloxy)phenyl]methylene]-3-ethyl-4-oxo-thiazolidin-2-ylidene]amino]-5-hydroxy-benzoic acid
@<TRIPOS>ATOM
      1 C1          7.4090    5.6189   -0.3569 C.3       1 <0>        -0.1598
      2 C2          7.8533    4.2899    0.2573 C.3       1 <0>         0.0975
      3 N1          6.9839    3.9604    1.3895 N.am      1 <0>        -0.5328
      4 C3          7.3015    4.3810    2.6023 C.2       1 <0>         0.5604
      5 O1          8.3042    5.0399    2.8054 O.2       1 <0>        -0.5068
      6 C4          6.3861    4.0084    3.7001 C.2       1 <0>        -0.1995
      7 C5          6.4668    4.2957    5.0232 C.2       1 <0>         0.0382
      8 C6          5.5228    3.6812    5.9678 C.ar      1 <0>        -0.0458
      9 C7          5.3639    4.2163    7.2514 C.ar      1 <0>        -0.1415
     10 C8          4.4733    3.6395    8.1317 C.ar      1 <0>        -0.0838
     11 C9          3.7431    2.5265    7.7549 C.ar      1 <0>        -0.2019
     12 C10         3.8971    1.9839    6.4857 C.ar      1 <0>         0.1458
     13 C11         4.7835    2.5559    5.5900 C.ar      1 <0>        -0.1355
     14 O2          3.1761    0.8904    6.1229 O.3       1 <0>        -0.2803
     15 C12         2.2800    0.3517    7.0969 C.3       1 <0>         0.0173
     16 C13         1.5731   -0.8478    6.5201 C.2       1 <0>         0.4676
     17 O3          1.8122   -1.2046    5.3908 O.co2     1 <0>        -0.6038
     18 S1          5.1431    3.0780    2.8154 S.3       1 <0>        -0.0197
     19 C14         5.8425    3.2202    1.1789 C.2       1 <0>         0.3489
     20 N2          5.3818    2.7312    0.0469 N.2       1 <0>        -0.3768
     21 C15         4.1809    2.0893    0.0211 C.ar      1 <0>         0.1000
     22 C16         3.0588    2.6721    0.6173 C.ar      1 <0>        -0.1396
     23 C17         1.8455    2.0227    0.5850 C.ar      1 <0>        -0.1238
     24 C18         1.7261    0.7795   -0.0295 C.ar      1 <0>         0.0903
     25 C19         2.8218    0.1852   -0.6248 C.ar      1 <0>        -0.0890
     26 C20         4.0614    0.8314   -0.6073 C.ar      1 <0>        -0.0778
     27 C21         5.2324    0.2046   -1.2386 C.2       1 <0>         0.4906
     28 O4          6.3081    0.7703   -1.2208 O.co2     1 <0>        -0.6064
     29 O5          0.5216    0.1484   -0.0487 O.3       1 <0>        -0.5037
     30 H1          6.3789    5.5330   -0.7028 H         1 <0>         0.0619
     31 H2          7.4759    6.4064    0.3937 H         1 <0>         0.0541
     32 H3          8.0559    5.8640   -1.1993 H         1 <0>         0.0711
     33 H4          8.8834    4.3757    0.6031 H         1 <0>         0.0890
     34 H5          7.7865    3.5023   -0.4933 H         1 <0>         0.1097
     35 H6          7.2246    4.9760    5.3828 H         1 <0>         0.1556
     36 H7          5.9353    5.0826    7.5504 H         1 <0>         0.1259
     37 H8          4.3486    4.0552    9.1206 H         1 <0>         0.1245
     38 H9          3.0503    2.0772    8.4510 H         1 <0>         0.1315
     39 H10         4.9037    2.1349    4.6027 H         1 <0>         0.1466
     40 H11         2.8422    0.0516    7.9812 H         1 <0>         0.0656
     41 H12         1.5455    1.1084    7.3727 H         1 <0>         0.0659
     42 H13         3.1428    3.6348    1.0996 H         1 <0>         0.1267
     43 H14         0.9807    2.4794    1.0432 H         1 <0>         0.1278
     44 H15         2.7210   -0.7779   -1.1030 H         1 <0>         0.1433
     45 H16         0.3707   -0.4341    0.7082 H         1 <0>         0.3913
     46 O6          0.6779   -1.5197    7.2609 O.co2     1 <0>        -0.7607
     47 O7          5.1128   -0.9975   -1.8371 O.co2     1 <0>        -0.7577
@<TRIPOS>BOND
     1    1    2 1
     2    1   30 1
     3    1   31 1
     4    1   32 1
     5    2    3 1
     6    2   33 1
     7    2   34 1
     8    3   19 1
     9    3    4 am
    10    4    5 2
    11    4    6 1
    12    6    7 2
    13    6   18 1
    14    7    8 1
    15    7   35 1
    16    8   13 ar
    17    8    9 ar
    18    9   10 ar
    19    9   36 1
    20   10   11 ar
    21   10   37 1
    22   11   12 ar
    23   11   38 1
    24   12   13 ar
    25   12   14 1
    26   13   39 1
    27   14   15 1
    28   15   16 1
    29   15   40 1
    30   15   41 1
    31   16   17 2
    32   16   46 1
    33   18   19 1
    34   19   20 2
    35   20   21 1
    36   21   26 ar
    37   21   22 ar
    38   22   23 ar
    39   22   42 1
    40   23   24 ar
    41   23   43 1
    42   24   25 ar
    43   24   29 1
    44   25   26 ar
    45   25   44 1
    46   26   27 1
    47   27   28 2
    48   27   47 1
    49   29   45 1
@<TRIPOS>MOLECULE
ZINC13277804
   52    55     0     0     0
SMALL
USER_CHARGES

@<TRIPOS>ATOM
      1 C1         -3.4771    1.0755    0.2274 C.3       1 <0>        -0.1694
      2 C2         -3.2031   -0.4062    0.2497 C.2       1 <0>         0.4998
      3 O1         -4.0746   -1.1791    0.5877 O.2       1 <0>        -0.5127
      4 N1         -1.9896   -0.8725   -0.1059 N.am      1 <0>        -0.6739
      5 C3         -1.7021   -2.2368    0.0125 C.ar      1 <0>         0.1279
      6 C4         -0.4292   -2.6500    0.3833 C.ar      1 <0>        -0.1428
      7 C5         -0.1487   -3.9974    0.4992 C.ar      1 <0>        -0.1019
      8 C6         -1.1336   -4.9345    0.2465 C.ar      1 <0>        -0.0740
      9 C7         -2.4020   -4.5262   -0.1234 C.ar      1 <0>        -0.0686
     10 C8         -2.6906   -3.1802   -0.2351 C.ar      1 <0>        -0.1110
     11 C9         -0.8240   -6.4038    0.3739 C.3       1 <0>         0.2469
     12 H1          0.1508   -6.5417    0.8419 H         1 <0>         0.0761
     13 C10        -0.8438   -7.0587   -0.9875 C.2       1 <0>        -0.4800
     14 C11        -1.8126   -8.0076   -0.9504 C.2       1 <0>         0.2912
     15 C12        -2.4392   -8.0077    0.3890 C.2       1 <0>         0.5016
     16 O2         -3.3402   -8.7447    0.7373 O.2       1 <0>        -0.5135
     17 N2         -1.8630   -7.0714    1.1666 N.am      1 <0>        -0.5420
     18 C13        -2.1953   -6.7850    2.4934 C.ar      1 <0>         0.1602
     19 C14        -1.5202   -5.7833    3.1796 C.ar      1 <0>        -0.1502
     20 C15        -1.8514   -5.5026    4.4905 C.ar      1 <0>        -0.0920
     21 C16        -2.8538   -6.2174    5.1203 C.ar      1 <0>        -0.0521
     22 C17        -3.5276   -7.2155    4.4404 C.ar      1 <0>        -0.0914
     23 C18        -3.2054   -7.4976    3.1275 C.ar      1 <0>        -0.1541
     24 C19        -3.2125   -5.9082    6.5510 C.3       1 <0>        -0.1503
     25 C20        -4.2896   -4.8547    6.5825 C.2       1 <0>         0.4945
     26 O3         -4.7256   -4.3974    5.5398 O.co2     1 <0>        -0.6798
     27 O4         -4.7251   -4.4598    7.6506 O.co2     1 <0>        -0.7145
     28 O5         -2.1510   -8.8227   -1.9742 O.3       1 <0>        -0.6030
     29 C21        -0.0131   -6.7432   -2.0881 C.2       1 <0>         0.4510
     30 O6         -0.1996   -7.2773   -3.1620 O.2       1 <0>        -0.5112
     31 C22         1.1033   -5.7438   -1.9273 C.3       1 <0>        -0.1959
     32 C23         2.4319   -6.0512   -2.6211 C.3       1 <0>        -0.1640
     33 C24         1.5223   -4.9475   -3.1648 C.3       1 <0>        -0.1612
     34 H2         -4.5037    1.2600    0.5439 H         1 <0>         0.0936
     35 H3         -2.7911    1.5821    0.9062 H         1 <0>         0.0878
     36 H4         -3.3348    1.4562   -0.7840 H         1 <0>         0.0858
     37 H5         -1.3155   -0.2623   -0.4439 H         1 <0>         0.4052
     38 H6          0.3405   -1.9186    0.5805 H         1 <0>         0.1190
     39 H7          0.8412   -4.3194    0.7872 H         1 <0>         0.1237
     40 H8         -3.1690   -5.2606   -0.3205 H         1 <0>         0.1178
     41 H9         -3.6828   -2.8619   -0.5190 H         1 <0>         0.1322
     42 H10        -0.7370   -5.2250    2.6884 H         1 <0>         0.1178
     43 H11        -1.3267   -4.7243    5.0246 H         1 <0>         0.1120
     44 H12        -4.3097   -7.7721    4.9354 H         1 <0>         0.1134
     45 H13        -3.7352   -8.2739    2.5956 H         1 <0>         0.1439
     46 H14        -3.5751   -6.8133    7.0384 H         1 <0>         0.0638
     47 H15        -2.3302   -5.5416    7.0757 H         1 <0>         0.0632
     48 H16         1.1440   -5.2353   -0.9640 H         1 <0>         0.1140
     49 H17         3.3470   -5.7450   -2.1142 H         1 <0>         0.0893
     50 H18         2.4984   -6.9762   -3.1938 H         1 <0>         0.0942
     51 H19         0.9904   -5.1465   -4.0951 H         1 <0>         0.0953
     52 H20         1.8390   -3.9153   -3.0156 H         1 <0>         0.0883
@<TRIPOS>BOND
     1    1    2 1
     2    1   34 1
     3    1   35 1
     4    1   36 1
     5    2    3 2
     6    2    4 am
     7    4    5 1
     8    4   37 1
     9    5   10 ar
    10    5    6 ar
    11    6    7 ar
    12    6   38 1
    13    7    8 ar
    14    7   39 1
    15    8    9 ar
    16    8   11 1
    17    9   10 ar
    18    9   40 1
    19   10   41 1
    20   11   12 1
    21   11   17 1
    22   11   13 1
    23   13   14 2
    24   13   29 1
    25   14   15 1
    26   14   28 1
    27   15   16 2
    28   15   17 am
    29   17   18 1
    30   18   23 ar
    31   18   19 ar
    32   19   20 ar
    33   19   42 1
    34   20   21 ar
    35   20   43 1
    36   21   22 ar
    37   21   24 1
    38   22   23 ar
    39   22   44 1
    40   23   45 1
    41   24   25 1
    42   24   46 1
    43   24   47 1
    44   25   26 2
    45   25   27 1
    46   29   30 2
    47   29   31 1
    48   31   33 1
    49   31   32 1
    50   31   48 1
    51   32   33 1
    52   32   49 1
    53   32   50 1
    54   33   51 1
    55   33   52 1
@<TRIPOS>MOLECULE
ZINC58867441
   44    46     0     0     0
SMALL
USER_CHARGES

@<TRIPOS>ATOM
      1 C1         -0.2350    1.3006   -0.0102 C.ar      1 <0>        -0.1734
      2 C2          0.8342    1.9066   -0.6517 C.ar      1 <0>        -0.1075
      3 C3          2.0742    1.3016   -0.6676 C.ar      1 <0>        -0.1572
      4 C4          2.2596    0.0773   -0.0383 C.ar      1 <0>         0.1935
      5 C5          1.1789   -0.5396    0.6131 C.ar      1 <0>        -0.1803
      6 C6         -0.0717    0.0868    0.6195 C.ar      1 <0>        -0.0661
      7 C7          1.3609   -1.8366    1.2833 C.2       1 <0>         0.5273
      8 O1          0.3976   -2.4165    1.7657 O.co2     1 <0>        -0.6880
      9 O2          2.4756   -2.3354    1.3583 O.co2     1 <0>        -0.6827
     10 N1          3.5083   -0.5345   -0.0535 N.am      1 <0>        -0.6462
     11 C8          4.6220    0.2105   -0.1991 C.2       1 <0>         0.5653
     12 O3          4.5441    1.4239   -0.2148 O.2       1 <0>        -0.5596
     13 C9          5.9351   -0.4459   -0.3394 C.ar      1 <0>        -0.2400
     14 C10         6.0258   -1.8411   -0.3273 C.ar      1 <0>        -0.0322
     15 C11         7.2524   -2.4506   -0.4588 C.ar      1 <0>        -0.1868
     16 C12         8.4026   -1.6795   -0.6034 C.ar      1 <0>         0.3015
     17 C13         8.3158   -0.2900   -0.6159 C.ar      1 <0>        -0.2794
     18 C14         7.0914    0.3255   -0.4905 C.ar      1 <0>         0.0014
     19 N2          9.6407   -2.2984   -0.7352 N.2       1 <0>        -1.0772
     20 S1         11.0099   -1.3829   -0.9073 S.o2      1 <0>         2.5902
     21 O4         10.9004   -0.7199   -2.1594 O.2       1 <0>        -1.0163
     22 O5         11.1841   -0.6792    0.3148 O.2       1 <0>        -1.0152
     23 C15        12.3678   -2.4973   -1.0447 C.ar      1 <0>        -0.5666
     24 C16        13.0333   -2.9193    0.0911 C.ar      1 <0>        -0.0227
     25 C17        14.0986   -3.7936   -0.0167 C.ar      1 <0>        -0.0796
     26 C18        14.4982   -4.2462   -1.2602 C.ar      1 <0>        -0.0206
     27 C19        13.8321   -3.8249   -2.3959 C.ar      1 <0>        -0.0801
     28 C20        12.7641   -2.9540   -2.2878 C.ar      1 <0>        -0.0232
     29 N3         15.6395   -5.1816   -1.3757 N.pl3     1 <0>         0.0347
     30 O6         16.2223   -5.5497   -0.3825 O.2       1 <0>        -0.1604
     31 O7         15.9890   -5.5775   -2.4633 O.3       1 <0>        -0.1609
     32 H1         -1.2002    1.7851   -0.0005 H         1 <0>         0.1083
     33 H2          0.6955    2.8585   -1.1426 H         1 <0>         0.1106
     34 H3          2.9015    1.7804   -1.1703 H         1 <0>         0.1406
     35 H4         -0.9080   -0.3806    1.1180 H         1 <0>         0.1236
     36 H5          3.5778   -1.4974    0.0408 H         1 <0>         0.4270
     37 H6          5.1340   -2.4398   -0.2144 H         1 <0>         0.1215
     38 H7          7.3231   -3.5282   -0.4496 H         1 <0>         0.1197
     39 H8          9.2098    0.3054   -0.7278 H         1 <0>         0.1008
     40 H9          7.0242    1.4033   -0.5047 H         1 <0>         0.1173
     41 H10        12.7211   -2.5657    1.0626 H         1 <0>         0.1625
     42 H11        14.6189   -4.1227    0.8706 H         1 <0>         0.1572
     43 H12        14.1446   -4.1783   -3.3675 H         1 <0>         0.1569
     44 H13        12.2413   -2.6278   -3.1748 H         1 <0>         0.1622
@<TRIPOS>BOND
     1    1    6 ar
     2    1    2 ar
     3    1   32 1
     4    2    3 ar
     5    2   33 1
     6    3    4 ar
     7    3   34 1
     8    4    5 ar
     9    4   10 1
    10    5    6 ar
    11    5    7 1
    12    6   35 1
    13    7    8 2
    14    7    9 1
    15   10   11 am
    16   10   36 1
    17   11   12 2
    18   11   13 1
    19   13   18 ar
    20   13   14 ar
    21   14   15 ar
    22   14   37 1
    23   15   16 ar
    24   15   38 1
    25   16   17 ar
    26   16   19 1
    27   17   18 ar
    28   17   39 1
    29   18   40 1
    30   19   20 1
    31   20   21 2
    32   20   22 2
    33   20   23 1
    34   23   28 ar
    35   23   24 ar
    36   24   25 ar
    37   24   41 1
    38   25   26 ar
    39   25   42 1
    40   26   27 ar
    41   26   29 1
    42   27   28 ar
    43   27   43 1
    44   28   44 1
    45   29   30 2
    46   29   31 1
@<TRIPOS>MOLECULE
ZINC04718137
   44    45     0     0     0
SMALL
USER_CHARGES
4-[[2-carboxy-1-(4-ethoxyphenyl)-ethyl]sulfamoyl]benzoic acid
@<TRIPOS>ATOM
      1 C1          1.1253    8.8963    4.2539 C.3       1 <0>        -0.1506
      2 C2          0.7944    7.7386    3.3099 C.3       1 <0>         0.0553
      3 O1          1.9022    6.8377    3.2545 O.3       1 <0>        -0.3171
      4 C3          1.7709    5.7468    2.4547 C.ar      1 <0>         0.1247
      5 C4          2.8076    4.8305    2.3536 C.ar      1 <0>        -0.1437
      6 C5          2.6718    3.7226    1.5396 C.ar      1 <0>        -0.0692
      7 C6          1.5040    3.5269    0.8256 C.ar      1 <0>        -0.1294
      8 C7          0.4715    4.4416    0.9203 C.ar      1 <0>        -0.0630
      9 C8          0.6000    5.5479    1.7377 C.ar      1 <0>        -0.2077
     10 C9          1.3588    2.3177   -0.0620 C.3       1 <0>         0.2147
     11 H1          2.0771    1.5561    0.2412 H         1 <0>         0.1015
     12 C10         1.6219    2.7173   -1.5152 C.3       1 <0>        -0.1550
     13 C11         1.6095    1.4865   -2.3848 C.2       1 <0>         0.4564
     14 O2          1.5166    0.3921   -1.8813 O.co2     1 <0>        -0.6135
     15 N1          0.0001    1.7834    0.0592 N.pl3     1 <0>        -1.0914
     16 S1         -0.3099    0.5393    1.1073 S.o2      1 <0>         2.6962
     17 O3         -1.7054    0.2820    1.0308 O.2       1 <0>        -0.9815
     18 O4          0.6646   -0.4620    0.8486 O.2       1 <0>        -0.9386
     19 C12         0.0032    1.1385    2.7344 C.ar      1 <0>        -0.6733
     20 C13         1.2661    1.0091    3.2847 C.ar      1 <0>        -0.0337
     21 C14         1.5195    1.4803    4.5562 C.ar      1 <0>        -0.0972
     22 C15         0.4952    2.0795    5.2921 C.ar      1 <0>        -0.0610
     23 C16        -0.7782    2.2021    4.7326 C.ar      1 <0>        -0.1118
     24 C17        -1.0163    1.7312    3.4581 C.ar      1 <0>        -0.0378
     25 C18         0.7578    2.5819    6.6563 C.2       1 <0>         0.4886
     26 O5         -0.1351    3.1030    7.2939 O.co2     1 <0>        -0.6303
     27 H2          1.3261    8.5057    5.2515 H         1 <0>         0.0680
     28 H3          2.0052    9.4245    3.8866 H         1 <0>         0.0624
     29 H4          0.2803    9.5836    4.2962 H         1 <0>         0.0732
     30 H5          0.5936    8.1293    2.3123 H         1 <0>         0.0569
     31 H6         -0.0855    7.2104    3.6772 H         1 <0>         0.0612
     32 H7          3.7202    4.9833    2.9106 H         1 <0>         0.1274
     33 H8          3.4786    3.0090    1.4606 H         1 <0>         0.1300
     34 H9         -0.4378    4.2889    0.3579 H         1 <0>         0.1217
     35 H10        -0.2086    6.2596    1.8150 H         1 <0>         0.1210
     36 H11         0.8456    3.4058   -1.8490 H         1 <0>         0.0687
     37 H12         2.5947    3.2037   -1.5879 H         1 <0>         0.0764
     38 H13        -0.7171    2.1556   -0.4774 H         1 <0>         0.4102
     39 H14         2.0564    0.5417    2.7159 H         1 <0>         0.1329
     40 H15         2.5068    1.3827    4.9829 H         1 <0>         0.1353
     41 H16        -1.5747    2.6648    5.2963 H         1 <0>         0.1291
     42 H17        -2.0007    1.8257    3.0240 H         1 <0>         0.1285
     43 O6          1.7016    1.6061   -3.7185 O.co2     1 <0>        -0.7854
     44 O7          1.9875    2.4620    7.1931 O.co2     1 <0>        -0.7491
@<TRIPOS>BOND
     1    1    2 1
     2    1   27 1
     3    1   28 1
     4    1   29 1
     5    2    3 1
     6    2   30 1
     7    2   31 1
     8    3    4 1
     9    4    9 ar
    10    4    5 ar
    11    5    6 ar
    12    5   32 1
    13    6    7 ar
    14    6   33 1
    15    7    8 ar
    16    7   10 1
    17    8    9 ar
    18    8   34 1
    19    9   35 1
    20   10   11 1
    21   10   12 1
    22   10   15 1
    23   12   13 1
    24   12   36 1
    25   12   37 1
    26   13   14 2
    27   13   43 1
    28   15   16 1
    29   15   38 1
    30   16   17 2
    31   16   18 2
    32   16   19 1
    33   19   24 ar
    34   19   20 ar
    35   20   21 ar
    36   20   39 1
    37   21   22 ar
    38   21   40 1
    39   22   23 ar
    40   22   25 1
    41   23   24 ar
    42   23   41 1
    43   24   42 1
    44   25   26 2
    45   25   44 1
@<TRIPOS>MOLECULE
ZINC19266368
   39    39     0     0     0
SMALL
USER_CHARGES
(2R,3S)-3-methyl-2-[4-(2-thienyl)butanoylamino]pentanoic acid
@<TRIPOS>ATOM
      1 C1         -5.4544    9.0177   -3.2145 C.3       1 <0>        -0.1523
      2 C2         -4.6074    7.7942   -3.5703 C.3       1 <0>        -0.1155
      3 C3         -5.5151    6.6817   -4.0987 C.3       1 <0>        -0.0831
      4 H1         -6.1162    7.0657   -4.9361 H         1 <0>         0.0839
      5 C4         -6.4440    6.2067   -2.9795 C.3       1 <0>        -0.1431
      6 C5         -4.6577    5.5101   -4.5815 C.3       1 <0>         0.1090
      7 H2         -3.9364    5.8367   -5.3451 H         1 <0>         0.0840
      8 C6         -5.5492    4.4351   -5.1478 C.2       1 <0>         0.4630
      9 O1         -5.8576    3.4854   -4.4673 O.co2     1 <0>        -0.6335
     10 O2         -6.0007    4.5325   -6.4081 O.co2     1 <0>        -0.7693
     11 N1         -3.8935    4.9676   -3.4555 N.am      1 <0>        -0.7086
     12 C7         -2.7392    4.3089   -3.6795 C.2       1 <0>         0.5078
     13 O3         -2.3332    4.1651   -4.8133 O.2       1 <0>        -0.5512
     14 C8         -1.9530    3.7509   -2.5212 C.3       1 <0>        -0.1376
     15 C9         -0.6949    3.0563   -3.0462 C.3       1 <0>        -0.0991
     16 C10         0.1033    2.4899   -1.8702 C.3       1 <0>        -0.0400
     17 C11         1.3425    1.8057   -2.3874 C.2       1 <0>        -0.1217
     18 C12         2.5745    2.3252   -2.6100 C.2       1 <0>        -0.1704
     19 C13         3.5712    1.5013   -3.0982 C.2       1 <0>        -0.1521
     20 C14         3.2871    0.1982   -3.3400 C.2       1 <0>        -0.1858
     21 S1          1.5666    0.1025   -2.8731 S.3       1 <0>         0.0308
     22 H3         -4.8018    9.8175   -2.8346 H         1 <0>         0.0474
     23 H4         -6.1872    8.7440   -2.4411 H         1 <0>         0.0555
     24 H5         -5.9832    9.3711   -4.1120 H         1 <0>         0.0531
     25 H6         -3.8746    8.0679   -4.3437 H         1 <0>         0.0587
     26 H7         -4.0786    7.4407   -2.6728 H         1 <0>         0.0585
     27 H8         -7.0966    5.4068   -3.3594 H         1 <0>         0.0673
     28 H9         -7.0604    7.0490   -2.6323 H         1 <0>         0.0510
     29 H10        -5.8428    5.8227   -2.1422 H         1 <0>         0.0474
     30 H11        -4.2618    5.0979   -2.4272 H         1 <0>         0.4059
     31 H12        -1.6649    4.5696   -1.8453 H         1 <0>         0.0878
     32 H13        -2.5718    3.0244   -1.9741 H         1 <0>         0.0921
     33 H14        -0.9830    2.2376   -3.7220 H         1 <0>         0.0746
     34 H15        -0.0762    3.7828   -3.5933 H         1 <0>         0.0731
     35 H16         0.3914    3.3086   -1.1944 H         1 <0>         0.0875
     36 H17        -0.5154    1.7634   -1.3231 H         1 <0>         0.0812
     37 H18         2.7743    3.3674   -2.4092 H         1 <0>         0.1315
     38 H19         4.5614    1.8901   -3.2846 H         1 <0>         0.1301
     39 H20         3.9337   -0.5802   -3.7175 H         1 <0>         0.1823
@<TRIPOS>BOND
     1    1    2 1
     2    1   22 1
     3    1   23 1
     4    1   24 1
     5    2    3 1
     6    2   25 1
     7    2   26 1
     8    3    4 1
     9    3    5 1
    10    3    6 1
    11    5   27 1
    12    5   28 1
    13    5   29 1
    14    6    7 1
    15    6    8 1
    16    6   11 1
    17    8    9 2
    18    8   10 1
    19   11   12 am
    20   11   30 1
    21   12   13 2
    22   12   14 1
    23   14   15 1
    24   14   31 1
    25   14   32 1
    26   15   16 1
    27   15   33 1
    28   15   34 1
    29   16   17 1
    30   16   35 1
    31   16   36 1
    32   17   21 1
    33   17   18 2
    34   18   19 1
    35   18   37 1
    36   19   20 2
    37   19   38 1
    38   20   21 1
    39   20   39 1
@<TRIPOS>MOLECULE
ZINC37411266
   37    37     0     0     0
SMALL
USER_CHARGES

@<TRIPOS>ATOM
      1 C1         -0.0168    1.3866    0.0097 C.2       1 <0>        -0.1171
      2 C2          1.2128    1.9983    0.0012 C.2       1 <0>        -0.1307
      3 C3          2.3322    1.2299   -0.0136 C.2       1 <0>        -0.2447
      4 S1          1.7515   -0.3464   -0.0165 S.3       1 <0>         0.2528
      5 C4          0.0021   -0.0041    0.0020 C.2       1 <0>        -0.1625
      6 C5         -1.0841   -0.9107    0.0079 C.2       1 <0>         0.0250
      7 C6         -0.8519   -2.2479   -0.0016 C.2       1 <0>        -0.2063
      8 C7         -1.9374   -3.1541    0.0043 C.2       1 <0>         0.5467
      9 O1         -3.0808   -2.7346    0.0179 O.2       1 <0>        -0.5457
     10 N1         -1.7068   -4.4819   -0.0051 N.am      1 <0>        -0.7245
     11 C8         -2.8315   -5.4207    0.0010 C.3       1 <0>         0.1164
     12 C9         -2.2987   -6.8549   -0.0119 C.3       1 <0>        -0.1306
     13 C10        -3.4733   -7.8354   -0.0056 C.3       1 <0>        -0.1163
     14 C11        -2.9405   -9.2695   -0.0185 C.3       1 <0>        -0.1192
     15 C12        -4.1150  -10.2500   -0.0122 C.3       1 <0>        -0.0942
     16 C13        -3.5823  -11.6842   -0.0251 C.3       1 <0>        -0.1839
     17 C14        -4.7392  -12.6499   -0.0189 C.2       1 <0>         0.4870
     18 O2         -5.8837  -12.2300   -0.0053 O.co2     1 <0>        -0.6996
     19 O3         -4.5306  -13.8511   -0.0274 O.co2     1 <0>        -0.7099
     20 Br1         4.1341    1.8034   -0.0277 Br        1 <0>         0.0395
     21 H1         -0.9387    1.9490    0.0258 H         1 <0>         0.1539
     22 H2          1.2883    3.0757    0.0059 H         1 <0>         0.1421
     23 H3         -2.0979   -0.5388    0.0200 H         1 <0>         0.1551
     24 H4          0.1620   -2.6199   -0.0136 H         1 <0>         0.1257
     25 H5         -0.7963   -4.8160   -0.0159 H         1 <0>         0.4013
     26 H6         -3.4308   -5.2639    0.8978 H         1 <0>         0.0698
     27 H7         -3.4485   -5.2543   -0.8820 H         1 <0>         0.0698
     28 H8         -1.6994   -7.0117   -0.9088 H         1 <0>         0.0676
     29 H9         -1.6817   -7.0213    0.8711 H         1 <0>         0.0676
     30 H10        -4.0726   -7.6785    0.8913 H         1 <0>         0.0649
     31 H11        -4.0902   -7.6690   -0.8886 H         1 <0>         0.0649
     32 H12        -2.3411   -9.4264   -0.9154 H         1 <0>         0.0551
     33 H13        -2.3235   -9.4359    0.8645 H         1 <0>         0.0552
     34 H14        -4.7144  -10.0931    0.8847 H         1 <0>         0.0582
     35 H15        -4.7320  -10.0836   -0.8952 H         1 <0>         0.0582
     36 H16        -2.9829  -11.8410   -0.9220 H         1 <0>         0.0541
     37 H17        -2.9653  -11.8506    0.8579 H         1 <0>         0.0541
@<TRIPOS>BOND
     1    1    5 2
     2    1    2 1
     3    1   21 1
     4    2    3 2
     5    2   22 1
     6    3    4 1
     7    3   20 1
     8    4    5 1
     9    5    6 1
    10    6    7 2
    11    6   23 1
    12    7    8 1
    13    7   24 1
    14    8    9 2
    15    8   10 am
    16   10   11 1
    17   10   25 1
    18   11   12 1
    19   11   26 1
    20   11   27 1
    21   12   13 1
    22   12   28 1
    23   12   29 1
    24   13   14 1
    25   13   30 1
    26   13   31 1
    27   14   15 1
    28   14   32 1
    29   14   33 1
    30   15   16 1
    31   15   34 1
    32   15   35 1
    33   16   17 1
    34   16   36 1
    35   16   37 1
    36   17   18 2
    37   17   19 1
@<TRIPOS>MOLECULE
ZINC13255553
   53    55     0     0     0
SMALL
USER_CHARGES

@<TRIPOS>ATOM
      1 C1         -0.0171    1.3065   -0.0133 C.2       1 <0>        -0.1645
      2 C2          0.0000   -0.0034   -0.0150 C.2       1 <0>        -0.1744
      3 C3          1.3149   -0.7398   -0.0122 C.3       1 <0>         0.1323
      4 N1          1.3505   -1.6711    1.1181 N.pl3     1 <0>        -0.4577
      5 C4          1.8001   -1.4162    2.3843 C.2       1 <0>         0.1791
      6 N2          1.6551   -2.5113    3.0753 N.2       1 <0>        -0.2799
      7 N3          1.1485   -3.4343    2.3381 N.2       1 <0>        -0.2963
      8 C5          0.9363   -2.9721    1.1278 C.2       1 <0>         0.1522
      9 S1          0.2500   -3.8632   -0.2285 S.3       1 <0>         0.0755
     10 C6         -0.0781   -5.5128    0.4511 C.3       1 <0>        -0.1330
     11 C7         -0.6752   -6.3880   -0.6206 C.2       1 <0>         0.5139
     12 O1         -0.8612   -5.9427   -1.7332 O.2       1 <0>        -0.5165
     13 N4         -1.0026   -7.6654   -0.3425 N.am      1 <0>        -0.6276
     14 C8         -1.6594   -8.4388   -1.2955 C.ar      1 <0>         0.1495
     15 C9         -2.4314   -7.8292   -2.2752 C.ar      1 <0>        -0.1097
     16 C10        -3.0871   -8.6068   -3.2269 C.ar      1 <0>        -0.1263
     17 C11        -2.9694   -9.9997   -3.1967 C.ar      1 <0>        -0.1192
     18 C12        -2.2054  -10.6091   -2.2276 C.ar      1 <0>        -0.0868
     19 C13        -1.5387   -9.8365   -1.2723 C.ar      1 <0>        -0.1767
     20 C14        -0.7153  -10.4897   -0.2378 C.2       1 <0>         0.5347
     21 O2         -0.5371  -11.6992   -0.2716 O.co2     1 <0>        -0.6864
     22 O3         -0.2106   -9.8219    0.6539 O.co2     1 <0>        -0.6976
     23 C15        -3.9096   -7.9580   -4.2708 C.2       1 <0>         0.5271
     24 O4         -4.0136   -6.7403   -4.2980 O.co2     1 <0>        -0.6906
     25 O5         -4.4855   -8.6394   -5.1065 O.co2     1 <0>        -0.6988
     26 C16         2.3600   -0.1105    2.8872 C.3       1 <0>         0.0107
     27 C17         3.7942   -0.3247    3.3750 C.3       1 <0>        -0.1101
     28 C18         4.3626    1.0008    3.8855 C.3       1 <0>        -0.1165
     29 C19         3.5017    1.5133    5.0419 C.3       1 <0>        -0.1216
     30 C20         2.0675    1.7275    4.5541 C.3       1 <0>        -0.1162
     31 C21         1.4991    0.4019    4.0436 C.3       1 <0>        -0.1080
     32 H1          0.9111    1.8586   -0.0099 H         1 <0>         0.0987
     33 H2         -0.9593    1.8342   -0.0198 H         1 <0>         0.1070
     34 H3         -0.9281   -0.5556   -0.0184 H         1 <0>         0.1236
     35 H4          1.4223   -1.2950   -0.9440 H         1 <0>         0.1111
     36 H5          2.1319   -0.0243    0.0807 H         1 <0>         0.1000
     37 H6          0.8552   -5.9534    0.8018 H         1 <0>         0.1257
     38 H7         -0.7765   -5.4303    1.2838 H         1 <0>         0.1237
     39 H8         -0.7805   -8.0459    0.5216 H         1 <0>         0.4264
     40 H9         -2.5237   -6.7534   -2.2992 H         1 <0>         0.1449
     41 H10        -3.4798  -10.5993   -3.9359 H         1 <0>         0.1187
     42 H11        -2.1172  -11.6853   -2.2080 H         1 <0>         0.1211
     43 H12         2.3564    0.6214    2.0795 H         1 <0>         0.0817
     44 H13         3.7977   -1.0567    4.1827 H         1 <0>         0.0777
     45 H14         4.4075   -0.6898    2.5512 H         1 <0>         0.0625
     46 H15         5.3844    0.8482    4.2331 H         1 <0>         0.0650
     47 H16         4.3591    1.7328    3.0779 H         1 <0>         0.0608
     48 H17         3.5053    0.7813    5.8496 H         1 <0>         0.0651
     49 H18         3.9067    2.4576    5.4056 H         1 <0>         0.0604
     50 H19         1.4542    2.0925    5.3779 H         1 <0>         0.0648
     51 H20         2.0640    2.4594    3.7464 H         1 <0>         0.0611
     52 H21         0.4773    0.5545    3.6960 H         1 <0>         0.0631
     53 H22         1.5026   -0.3300    4.8512 H         1 <0>         0.0767
@<TRIPOS>BOND
     1    1    2 2
     2    1   32 1
     3    1   33 1
     4    2    3 1
     5    2   34 1
     6    3    4 1
     7    3   35 1
     8    3   36 1
     9    4    8 1
    10    4    5 1
    11    5    6 2
    12    5   26 1
    13    6    7 1
    14    7    8 2
    15    8    9 1
    16    9   10 1
    17   10   11 1
    18   10   37 1
    19   10   38 1
    20   11   12 2
    21   11   13 am
    22   13   14 1
    23   13   39 1
    24   14   19 ar
    25   14   15 ar
    26   15   16 ar
    27   15   40 1
    28   16   17 ar
    29   16   23 1
    30   17   18 ar
    31   17   41 1
    32   18   19 ar
    33   18   42 1
    34   19   20 1
    35   20   21 2
    36   20   22 1
    37   23   24 2
    38   23   25 1
    39   26   31 1
    40   26   27 1
    41   26   43 1
    42   27   28 1
    43   27   44 1
    44   27   45 1
    45   28   29 1
    46   28   46 1
    47   28   47 1
    48   29   30 1
    49   29   48 1
    50   29   49 1
    51   30   31 1
    52   30   50 1
    53   30   51 1
    54   31   52 1
    55   31   53 1
@<TRIPOS>MOLECULE
ZINC58839564
   37    37     0     0     0
SMALL
USER_CHARGES

@<TRIPOS>ATOM
      1 C1         -0.0187    1.5258    0.0104 C.3       1 <0>        -0.1462
      2 C2          0.0021   -0.0041    0.0020 C.3       1 <0>        -0.1165
      3 C3          0.7182   -0.4975   -1.2568 C.3       1 <0>         0.0753
      4 H1          0.2444   -0.0644   -2.1377 H         1 <0>         0.0816
      5 C4          0.6316   -2.0003   -1.3275 C.2       1 <0>         0.4903
      6 O1         -0.3053   -2.5307   -1.8996 O.co2     1 <0>        -0.6950
      7 O2          1.4986   -2.6858   -0.8126 O.co2     1 <0>        -0.6922
      8 N1          2.1249   -0.0911   -1.2094 N.am      1 <0>        -0.6918
      9 C5          2.8241    0.0515   -2.3527 C.2       1 <0>         0.5134
     10 O3          2.2887   -0.1566   -3.4209 O.2       1 <0>        -0.5495
     11 C6          4.2711    0.4696   -2.3039 C.3       1 <0>        -0.1220
     12 C7          4.8252    0.5563   -3.7275 C.3       1 <0>        -0.0656
     13 S1          6.5670    1.0596   -3.6687 S.3       1 <0>        -0.2569
     14 C8          7.0669    1.1144   -5.4116 C.3       1 <0>        -0.0471
     15 C9          8.5138    1.5251   -5.5065 C.ar      1 <0>        -0.0795
     16 C10         8.8470    2.8634   -5.6027 C.ar      1 <0>        -0.0717
     17 C11        10.1735    3.2412   -5.6893 C.ar      1 <0>        -0.1540
     18 C12        11.1689    2.2789   -5.6797 C.ar      1 <0>         0.0994
     19 C13        10.8340    0.9389   -5.5832 C.ar      1 <0>        -0.1532
     20 C14         9.5071    0.5637   -5.4915 C.ar      1 <0>        -0.0708
     21 F1         12.4660    2.6471   -5.7647 F         1 <0>        -0.1406
     22 H2          1.0039    1.9031    0.0027 H         1 <0>         0.0500
     23 H3         -0.5459    1.8868   -0.8726 H         1 <0>         0.0512
     24 H4         -0.5289    1.8773    0.9072 H         1 <0>         0.0492
     25 H5          0.5293   -0.3651    0.8851 H         1 <0>         0.0639
     26 H6         -1.0205   -0.3814    0.0098 H         1 <0>         0.0750
     27 H7          2.5531    0.0754   -0.3551 H         1 <0>         0.3928
     28 H8          4.3517    1.4443   -1.8227 H         1 <0>         0.0963
     29 H9          4.8424   -0.2644   -1.7357 H         1 <0>         0.1008
     30 H10         4.7446   -0.4184   -4.2087 H         1 <0>         0.0911
     31 H11         4.2539    1.2904   -4.2956 H         1 <0>         0.0889
     32 H12         6.9393    0.1280   -5.8574 H         1 <0>         0.0941
     33 H13         6.4485    1.8368   -5.9444 H         1 <0>         0.0932
     34 H14         8.0703    3.6138   -5.6106 H         1 <0>         0.1358
     35 H15        10.4335    4.2867   -5.7649 H         1 <0>         0.1367
     36 H16        11.6096    0.1874   -5.5759 H         1 <0>         0.1372
     37 H17         9.2458   -0.4811   -5.4117 H         1 <0>         0.1368
@<TRIPOS>BOND
     1    1    2 1
     2    1   22 1
     3    1   23 1
     4    1   24 1
     5    2    3 1
     6    2   25 1
     7    2   26 1
     8    3    4 1
     9    3    5 1
    10    3    8 1
    11    5    6 2
    12    5    7 1
    13    8    9 am
    14    8   27 1
    15    9   10 2
    16    9   11 1
    17   11   12 1
    18   11   28 1
    19   11   29 1
    20   12   13 1
    21   12   30 1
    22   12   31 1
    23   13   14 1
    24   14   15 1
    25   14   32 1
    26   14   33 1
    27   15   20 ar
    28   15   16 ar
    29   16   17 ar
    30   16   34 1
    31   17   18 ar
    32   17   35 1
    33   18   19 ar
    34   18   21 1
    35   19   20 ar
    36   19   36 1
    37   20   37 1
@<TRIPOS>MOLECULE
ZINC14834502
   61    61     0     0     0
SMALL
USER_CHARGES
2-methoxyethyl 4-[[4-(dipropylcarbamoyl)phenyl]carbamothioylamino]-4-oxo-butanoate
@<TRIPOS>ATOM
      1 C1         -6.0867   -0.7273   -0.1921 C.3       1 <0>        -0.1542
      2 C2         -6.2879    0.7017    0.3160 C.3       1 <0>        -0.1450
      3 C3         -6.0385    1.6889   -0.8260 C.3       1 <0>         0.0924
      4 N1         -6.1206    3.0590   -0.3138 N.am      1 <0>        -0.6054
      5 C4         -7.4239    3.6406    0.0169 C.3       1 <0>         0.1142
      6 C5         -7.9981    4.3401   -1.2168 C.3       1 <0>        -0.1391
      7 C6         -9.3592    4.9474   -0.8714 C.3       1 <0>        -0.1497
      8 C7         -4.9970    3.7844   -0.1469 C.2       1 <0>         0.5593
      9 O1         -5.0680    4.9345    0.2412 O.2       1 <0>        -0.5314
     10 C8         -3.6806    3.1828   -0.4351 C.ar      1 <0>        -0.1204
     11 C9         -3.4069    1.8721   -0.0347 C.ar      1 <0>        -0.0940
     12 C10        -2.1782    1.3137   -0.3055 C.ar      1 <0>        -0.0746
     13 C11        -1.2093    2.0527   -0.9776 C.ar      1 <0>         0.1360
     14 C12        -1.4768    3.3599   -1.3729 C.ar      1 <0>        -0.1220
     15 C13        -2.7051    3.9225   -1.1095 C.ar      1 <0>        -0.0623
     16 N2          0.0336    1.4845   -1.2501 N.pl3     1 <0>        -0.6213
     17 C14         0.1086    0.2323   -1.7430 C.2       1 <0>         0.5081
     18 S1         -1.3159   -0.6966   -1.9404 S.2       1 <0>        -0.4803
     19 N3          1.3049   -0.2885   -2.0805 N.am      1 <0>        -0.6418
     20 C15         1.3799   -1.5407   -2.5734 C.2       1 <0>         0.4896
     21 O2          0.3711   -2.1986   -2.7132 O.2       1 <0>        -0.4021
     22 C16         2.7176   -2.1231   -2.9507 C.3       1 <0>        -0.1259
     23 C17         2.5238   -3.5458   -3.4790 C.3       1 <0>        -0.1015
     24 C18         3.8615   -4.1282   -3.8563 C.2       1 <0>         0.4666
     25 O3          4.8668   -3.4726   -3.7170 O.2       1 <0>        -0.5128
     26 O4          3.9362   -5.3753   -4.3472 O.3       1 <0>        -0.3455
     27 C19         5.2573   -5.8711   -4.6892 C.3       1 <0>         0.0688
     28 C20         5.1427   -7.2984   -5.2282 C.3       1 <0>         0.0598
     29 O5          4.4137   -7.2863   -6.4572 O.3       1 <0>        -0.3867
     30 C21         4.2489   -8.5770   -7.0480 C.3       1 <0>         0.0303
     31 H1         -6.2644   -1.4306    0.6215 H         1 <0>         0.0594
     32 H2         -6.7866   -0.9263   -1.0037 H         1 <0>         0.0575
     33 H3         -5.0658   -0.8432   -0.5561 H         1 <0>         0.0632
     34 H4         -5.5880    0.9007    1.1276 H         1 <0>         0.0689
     35 H5         -7.3088    0.8176    0.6800 H         1 <0>         0.0684
     36 H6         -6.7911    1.5452   -1.6013 H         1 <0>         0.0773
     37 H7         -5.0473    1.5165   -1.2454 H         1 <0>         0.0980
     38 H8         -8.1038    2.8507    0.3361 H         1 <0>         0.0788
     39 H9         -7.3046    4.3649    0.8227 H         1 <0>         0.0848
     40 H10        -7.3182    5.1300   -1.5360 H         1 <0>         0.0664
     41 H11        -8.1173    3.6158   -2.0226 H         1 <0>         0.0625
     42 H12       -10.0391    4.1575   -0.5522 H         1 <0>         0.0552
     43 H13        -9.2399    5.6717   -0.0656 H         1 <0>         0.0570
     44 H14        -9.7683    5.4458   -1.7503 H         1 <0>         0.0575
     45 H15        -4.1587    1.2978    0.4862 H         1 <0>         0.1452
     46 H16        -1.9660    0.3009    0.0036 H         1 <0>         0.1520
     47 H17        -0.7211    3.9323   -1.8904 H         1 <0>         0.1327
     48 H18        -2.9136    4.9356   -1.4202 H         1 <0>         0.1370
     49 H19         0.8449    1.9887   -1.0814 H         1 <0>         0.4101
     50 H20         2.1120    0.2378   -1.9686 H         1 <0>         0.4135
     51 H21         3.1767   -1.5076   -3.7244 H         1 <0>         0.1108
     52 H22         3.3643   -2.1462   -2.0736 H         1 <0>         0.1105
     53 H23         2.0647   -4.1613   -2.7053 H         1 <0>         0.1192
     54 H24         1.8771   -3.5227   -4.3561 H         1 <0>         0.1201
     55 H25         5.7003   -5.2295   -5.4509 H         1 <0>         0.0814
     56 H26         5.8879   -5.8681   -3.8001 H         1 <0>         0.0886
     57 H27         6.1401   -7.7026   -5.4014 H         1 <0>         0.0753
     58 H28         4.6197   -7.9203   -4.5017 H         1 <0>         0.0639
     59 H29         5.2277   -9.0077   -7.2589 H         1 <0>         0.0427
     60 H30         3.7074   -9.2254   -6.3592 H         1 <0>         0.0443
     61 H31         3.6858   -8.4824   -7.9765 H         1 <0>         0.0891
@<TRIPOS>BOND
     1    1    2 1
     2    1   31 1
     3    1   32 1
     4    1   33 1
     5    2    3 1
     6    2   34 1
     7    2   35 1
     8    3    4 1
     9    3   36 1
    10    3   37 1
    11    4    5 1
    12    4    8 am
    13    5    6 1
    14    5   38 1
    15    5   39 1
    16    6    7 1
    17    6   40 1
    18    6   41 1
    19    7   42 1
    20    7   43 1
    21    7   44 1
    22    8    9 2
    23    8   10 1
    24   10   15 ar
    25   10   11 ar
    26   11   12 ar
    27   11   45 1
    28   12   13 ar
    29   12   46 1
    30   13   14 ar
    31   13   16 1
    32   14   15 ar
    33   14   47 1
    34   15   48 1
    35   16   17 1
    36   16   49 1
    37   17   18 2
    38   17   19 1
    39   19   20 am
    40   19   50 1
    41   20   21 2
    42   20   22 1
    43   22   23 1
    44   22   51 1
    45   22   52 1
    46   23   24 1
    47   23   53 1
    48   23   54 1
    49   24   25 2
    50   24   26 1
    51   26   27 1
    52   27   28 1
    53   27   55 1
    54   27   56 1
    55   28   29 1
    56   28   57 1
    57   28   58 1
    58   29   30 1
    59   30   59 1
    60   30   60 1
    61   30   61 1
@<TRIPOS>MOLECULE
ZINC35350931
   63    65     0     0     0
SMALL
USER_CHARGES

@<TRIPOS>ATOM
      1 C1         -0.0424    1.3966   -0.0479 C.3       1 <0>         0.0308
      2 O1         -0.0162   -0.0322   -0.0439 O.3       1 <0>        -0.3903
      3 C2          0.6557   -0.5980    1.0833 C.3       1 <0>         0.0381
      4 C3          0.6224   -2.1244    0.9834 C.3       1 <0>         0.1116
      5 N1          1.3954   -2.5543   -0.1845 N.am      1 <0>        -0.5950
      6 C4          2.8263   -2.8389   -0.0516 C.3       1 <0>         0.0955
      7 C5          3.0192   -4.2925    0.2961 C.2       1 <0>         0.5022
      8 O2          2.0561   -4.9975    0.5114 O.2       1 <0>        -0.5195
      9 N2          4.2620   -4.8090    0.3678 N.am      1 <0>        -0.6081
     10 C6          4.4465   -6.2452    0.5905 C.3       1 <0>         0.1222
     11 C7          4.5006   -6.9675   -0.7572 C.3       1 <0>        -0.0569
     12 C8          4.6905   -8.4448   -0.5281 C.2       1 <0>        -0.1668
     13 C9          5.8573   -9.1084   -0.5222 C.2       1 <0>         0.0533
     14 N3          5.6371  -10.4373   -0.2811 N.pl3     1 <0>        -0.5959
     15 H1          6.3280  -11.1162   -0.2299 H         1 <0>         0.4158
     16 C10         4.2889  -10.6670   -0.1219 C.ar      1 <0>         0.0952
     17 C11         3.6373   -9.4280   -0.2633 C.ar      1 <0>        -0.1008
     18 C12         2.2485   -9.3538   -0.1438 C.ar      1 <0>        -0.0659
     19 C13         1.5282  -10.4862    0.1139 C.ar      1 <0>        -0.1467
     20 C14         2.1666  -11.7101    0.2583 C.ar      1 <0>        -0.0969
     21 C15         3.5356  -11.8076    0.1351 C.ar      1 <0>        -0.1338
     22 C16         5.4283   -3.9344    0.2230 C.3       1 <0>         0.1454
     23 C17         5.9184   -3.5208    1.5868 C.ar      1 <0>        -0.1197
     24 C18         5.5009   -2.3232    2.1369 C.ar      1 <0>        -0.0812
     25 C19         5.9493   -1.9431    3.3876 C.ar      1 <0>        -0.1515
     26 C20         6.8171   -2.7623    4.0897 C.ar      1 <0>         0.1042
     27 C21         7.2346   -3.9615    3.5378 C.ar      1 <0>        -0.1513
     28 C22         6.7807   -4.3420    2.2891 C.ar      1 <0>        -0.0722
     29 F1          7.2565   -2.3915    5.3123 F         1 <0>        -0.1377
     30 C23         0.7900   -2.6880   -1.3812 C.2       1 <0>         0.5344
     31 O3          1.4299   -3.0439   -2.3481 O.2       1 <0>        -0.5172
     32 C24        -0.6819   -2.3952   -1.5180 C.3       1 <0>         0.0395
     33 O4         -1.0862   -2.6081   -2.8720 O.3       1 <0>        -0.3699
     34 C25        -2.4725   -2.3570   -3.1110 C.3       1 <0>         0.0318
     35 H2          0.9784    1.7787   -0.0568 H         1 <0>         0.0426
     36 H3         -0.5696    1.7478   -0.9350 H         1 <0>         0.0872
     37 H4         -0.5560    1.7531    0.8449 H         1 <0>         0.0437
     38 H5          1.6909   -0.2573    1.0978 H         1 <0>         0.0554
     39 H6          0.1565   -0.2829    1.9996 H         1 <0>         0.0662
     40 H7          1.0557   -2.5570    1.8852 H         1 <0>         0.0997
     41 H8         -0.4096   -2.4593    0.8794 H         1 <0>         0.0921
     42 H9          3.3292   -2.6208   -0.9937 H         1 <0>         0.1161
     43 H10         3.2485   -2.2173    0.7380 H         1 <0>         0.1046
     44 H11         5.3788   -6.4124    1.1300 H         1 <0>         0.0758
     45 H12         3.6131   -6.6320    1.1769 H         1 <0>         0.0865
     46 H13         3.5683   -6.8003   -1.2966 H         1 <0>         0.0748
     47 H14         5.3340   -6.5807   -1.3435 H         1 <0>         0.0705
     48 H15         6.8263   -8.6600   -0.6842 H         1 <0>         0.1686
     49 H16         1.7450   -8.4047   -0.2543 H         1 <0>         0.1228
     50 H17         0.4537  -10.4283    0.2062 H         1 <0>         0.1218
     51 H18         1.5838  -12.5961    0.4625 H         1 <0>         0.1245
     52 H19         4.0231  -12.7643    0.2503 H         1 <0>         0.1187
     53 H20         6.2205   -4.4690   -0.3011 H         1 <0>         0.0954
     54 H21         5.1493   -3.0482   -0.3470 H         1 <0>         0.0930
     55 H22         4.8243   -1.6843    1.5888 H         1 <0>         0.1303
     56 H23         5.6233   -1.0073    3.8170 H         1 <0>         0.1373
     57 H24         7.9117   -4.6011    4.0844 H         1 <0>         0.1372
     58 H25         7.1026   -5.2795    1.8603 H         1 <0>         0.1335
     59 H26        -1.2466   -3.0575   -0.8618 H         1 <0>         0.0746
     60 H27        -0.8736   -1.3588   -1.2403 H         1 <0>         0.1076
     61 H28        -3.0743   -3.0185   -2.4879 H         1 <0>         0.0425
     62 H29        -2.7013   -1.3197   -2.8663 H         1 <0>         0.0437
     63 H30        -2.6993   -2.5411   -4.1611 H         1 <0>         0.0904
@<TRIPOS>BOND
     1    1    2 1
     2    1   35 1
     3    1   36 1
     4    1   37 1
     5    2    3 1
     6    3    4 1
     7    3   38 1
     8    3   39 1
     9    4    5 1
    10    4   40 1
    11    4   41 1
    12    5    6 1
    13    5   30 am
    14    6    7 1
    15    6   42 1
    16    6   43 1
    17    7    8 2
    18    7    9 am
    19    9   10 1
    20    9   22 1
    21   10   11 1
    22   10   44 1
    23   10   45 1
    24   11   12 1
    25   11   46 1
    26   11   47 1
    27   12   17 1
    28   12   13 2
    29   13   14 1
    30   13   48 1
    31   14   15 1
    32   14   16 1
    33   16   21 ar
    34   16   17 ar
    35   17   18 ar
    36   18   19 ar
    37   18   49 1
    38   19   20 ar
    39   19   50 1
    40   20   21 ar
    41   20   51 1
    42   21   52 1
    43   22   23 1
    44   22   53 1
    45   22   54 1
    46   23   28 ar
    47   23   24 ar
    48   24   25 ar
    49   24   55 1
    50   25   26 ar
    51   25   56 1
    52   26   27 ar
    53   26   29 1
    54   27   28 ar
    55   27   57 1
    56   28   58 1
    57   30   31 2
    58   30   32 1
    59   32   33 1
    60   32   59 1
    61   32   60 1
    62   33   34 1
    63   34   61 1
    64   34   62 1
    65   34   63 1
@<TRIPOS>MOLECULE
ZINC56484611
   52    52     0     0     0
SMALL
USER_CHARGES

@<TRIPOS>ATOM
      1 C1         -0.0060    1.5359    0.0493 C.3       1 <0>        -0.1518
      2 C2          0.0099    0.0061    0.0322 C.3       1 <0>        -0.1383
      3 C3          0.7545   -0.5101    1.2651 C.3       1 <0>         0.1100
      4 N1          0.7697   -1.9749    1.2487 N.am      1 <0>        -0.6115
      5 C4          1.8666   -2.6888    0.5904 C.3       1 <0>         0.2043
      6 C5          2.9454   -2.9338    1.5615 C.1       1 <0>         0.1740
      7 N2          3.7778   -3.1229    2.3110 N.1       1 <0>        -0.4013
      8 C6         -0.2254   -2.6658    1.8393 C.2       1 <0>         0.5257
      9 O1         -1.1335   -2.0748    2.3844 O.2       1 <0>        -0.5204
     10 C7         -0.2098   -4.1726    1.8225 C.3       1 <0>        -0.1291
     11 C8         -1.4430   -4.7037    2.5560 C.3       1 <0>        -0.0911
     12 S1         -1.4242   -6.5174    2.5357 S.3       1 <0>        -0.1743
     13 C9         -2.9309   -6.9820    3.4328 C.3       1 <0>        -0.1291
     14 C10        -3.0387   -8.4841    3.4896 C.2       1 <0>         0.5325
     15 O2         -2.1834   -9.1733    2.9756 O.2       1 <0>        -0.4886
     16 N3         -4.0857   -9.0615    4.1117 N.am      1 <0>        -0.6706
     17 C11        -4.2365  -10.4471    4.0820 C.ar      1 <0>         0.1820
     18 C12        -3.1138  -11.2683    4.1165 C.ar      1 <0>        -0.1337
     19 C13        -3.2589  -12.6368    4.0873 C.ar      1 <0>        -0.0318
     20 C14        -4.5363  -13.2014    4.0234 C.ar      1 <0>        -0.1433
     21 C15        -5.6621  -12.3731    3.9893 C.ar      1 <0>        -0.0397
     22 C16        -5.5096  -11.0056    4.0237 C.ar      1 <0>        -0.1579
     23 C17        -4.6958  -14.6670    3.9915 C.2       1 <0>         0.5102
     24 O3         -3.7164  -15.3855    4.0208 O.2       1 <0>        -0.5043
     25 O4         -5.9277  -15.2095    3.9298 O.3       1 <0>        -0.3498
     26 C18        -6.0078  -16.6360    3.9019 C.3       1 <0>         0.0607
     27 C19        -7.4753  -17.0631    3.8323 C.3       1 <0>        -0.1525
     28 H1          1.0178    1.9100    0.0385 H         1 <0>         0.0563
     29 H2         -0.5365    1.9036   -0.8290 H         1 <0>         0.0597
     30 H3         -0.5105    1.8839    0.9507 H         1 <0>         0.0573
     31 H4         -1.0138   -0.3681    0.0430 H         1 <0>         0.0687
     32 H5          0.5144   -0.3420   -0.8691 H         1 <0>         0.0664
     33 H6          1.7783   -0.1360    1.2543 H         1 <0>         0.0810
     34 H7          0.2500   -0.1620    2.1665 H         1 <0>         0.0896
     35 H8          1.5012   -3.6408    0.2053 H         1 <0>         0.1285
     36 H9          2.2494   -2.0864   -0.2335 H         1 <0>         0.1314
     37 H10        -0.2210   -4.5246    0.7909 H         1 <0>         0.1115
     38 H11         0.6913   -4.5322    2.3193 H         1 <0>         0.1044
     39 H12        -1.4318   -4.3517    3.5875 H         1 <0>         0.0913
     40 H13        -2.3441   -4.3441    2.0592 H         1 <0>         0.0936
     41 H14        -2.8884   -6.5822    4.4459 H         1 <0>         0.1177
     42 H15        -3.8007   -6.5745    2.9176 H         1 <0>         0.1184
     43 H16        -4.7342   -8.5129    4.5801 H         1 <0>         0.4166
     44 H17        -2.1273  -10.8315    4.1659 H         1 <0>         0.1500
     45 H18        -2.3870  -13.2737    4.1135 H         1 <0>         0.1429
     46 H19        -6.6504  -12.8059    3.9395 H         1 <0>         0.1442
     47 H20        -6.3790  -10.3652    4.0011 H         1 <0>         0.1370
     48 H21        -5.4778  -17.0126    3.0271 H         1 <0>         0.0690
     49 H22        -5.5534  -17.0431    4.8052 H         1 <0>         0.0690
     50 H23        -8.0053  -16.6865    4.7071 H         1 <0>         0.0671
     51 H24        -7.9298  -16.6560    2.9290 H         1 <0>         0.0672
     52 H25        -7.5364  -18.1512    3.8110 H         1 <0>         0.0809
@<TRIPOS>BOND
     1    1    2 1
     2    1   28 1
     3    1   29 1
     4    1   30 1
     5    2    3 1
     6    2   31 1
     7    2   32 1
     8    3    4 1
     9    3   33 1
    10    3   34 1
    11    4    5 1
    12    4    8 am
    13    5    6 1
    14    5   35 1
    15    5   36 1
    16    6    7 3
    17    8    9 2
    18    8   10 1
    19   10   11 1
    20   10   37 1
    21   10   38 1
    22   11   12 1
    23   11   39 1
    24   11   40 1
    25   12   13 1
    26   13   14 1
    27   13   41 1
    28   13   42 1
    29   14   15 2
    30   14   16 am
    31   16   17 1
    32   16   43 1
    33   17   22 ar
    34   17   18 ar
    35   18   19 ar
    36   18   44 1
    37   19   20 ar
    38   19   45 1
    39   20   21 ar
    40   20   23 1
    41   21   22 ar
    42   21   46 1
    43   22   47 1
    44   23   24 2
    45   23   25 1
    46   25   26 1
    47   26   27 1
    48   26   48 1
    49   26   49 1
    50   27   50 1
    51   27   51 1
    52   27   52 1
@<TRIPOS>MOLECULE
ZINC63666181
   57    57     0     0     0
SMALL
USER_CHARGES

@<TRIPOS>ATOM
      1 C1         -0.0173    1.4248    0.0099 C.3       1 <0>         0.0303
      2 O1          0.0021   -0.0041    0.0020 O.3       1 <0>        -0.3850
      3 C2          0.6734   -0.5824    1.1231 C.3       1 <0>         0.0615
      4 C3          0.6327   -2.1077    1.0107 C.3       1 <0>         0.0641
      5 O2          1.3824   -2.5212   -0.1334 O.3       1 <0>        -0.3806
      6 C4          1.4084   -3.9362   -0.3310 C.3       1 <0>         0.0652
      7 C5          2.2344   -4.2622   -1.5769 C.3       1 <0>        -0.1306
      8 C6          2.2622   -5.7772   -1.7884 C.3       1 <0>         0.1213
      9 N1          3.0531   -6.0893   -2.9814 N.am      1 <0>        -0.7322
     10 C7          3.2166   -7.3709   -3.3653 C.2       1 <0>         0.5139
     11 O3          2.7090   -8.2657   -2.7231 O.2       1 <0>        -0.5390
     12 C8          4.0303   -7.6919   -4.5925 C.3       1 <0>        -0.1376
     13 C9          4.0581   -9.2069   -4.8040 C.3       1 <0>        -0.1166
     14 C10         4.8841   -9.5329   -6.0499 C.3       1 <0>         0.1379
     15 N2          4.9107  -10.9836   -6.2525 N.am      1 <0>        -0.7476
     16 C11         5.5838  -11.5059   -7.2967 C.2       1 <0>         0.7038
     17 O4          6.1690  -10.7732   -8.0707 O.2       1 <0>        -0.5896
     18 N3          5.6083  -12.8405   -7.4831 N.am      1 <0>        -0.7438
     19 C12         6.3400  -13.4084   -8.6182 C.3       1 <0>         0.1636
     20 C13         5.4442  -13.3992   -9.8585 C.3       1 <0>        -0.1298
     21 C14         6.2083  -13.9922  -11.0439 C.3       1 <0>        -0.1178
     22 C15         6.6158  -15.4309  -10.7198 C.3       1 <0>        -0.1227
     23 C16         7.5117  -15.4401   -9.4795 C.3       1 <0>        -0.1162
     24 C17         6.7475  -14.8470   -8.2940 C.3       1 <0>        -0.1265
     25 H1          1.0053    1.8021    0.0021 H         1 <0>         0.0422
     26 H2         -0.5445    1.7859   -0.8732 H         1 <0>         0.0872
     27 H3         -0.5275    1.7763    0.9067 H         1 <0>         0.0411
     28 H4          1.7103   -0.2468    1.1385 H         1 <0>         0.0586
     29 H5          0.1775   -0.2725    2.0430 H         1 <0>         0.0657
     30 H6          1.0656   -2.5499    1.9080 H         1 <0>         0.0661
     31 H7         -0.4012   -2.4369    0.9060 H         1 <0>         0.0595
     32 H8          1.8574   -4.4163    0.5385 H         1 <0>         0.0525
     33 H9          0.3906   -4.3033   -0.4635 H         1 <0>         0.0537
     34 H10         1.7854   -3.7821   -2.4464 H         1 <0>         0.0801
     35 H11         3.2521   -3.8951   -1.4443 H         1 <0>         0.0787
     36 H12         2.7112   -6.2573   -0.9190 H         1 <0>         0.0701
     37 H13         1.2445   -6.1443   -1.9210 H         1 <0>         0.0704
     38 H14         3.4592   -5.3736   -3.4950 H         1 <0>         0.4035
     39 H15         3.5812   -7.2118   -5.4620 H         1 <0>         0.0995
     40 H16         5.0480   -7.3248   -4.4599 H         1 <0>         0.0994
     41 H17         4.5071   -9.6870   -3.9346 H         1 <0>         0.0778
     42 H18         3.0403   -9.5740   -4.9366 H         1 <0>         0.0778
     43 H19         4.4351   -9.0528   -6.9194 H         1 <0>         0.0674
     44 H20         5.9018   -9.1658   -5.9174 H         1 <0>         0.0674
     45 H21         4.4438  -11.5681   -5.6350 H         1 <0>         0.3973
     46 H22         5.1415  -13.4251   -6.8656 H         1 <0>         0.3950
     47 H23         7.2323  -12.8125   -8.8100 H         1 <0>         0.0881
     48 H24         4.5519  -13.9951   -9.6666 H         1 <0>         0.0618
     49 H25         5.1539  -12.3743  -10.0894 H         1 <0>         0.0675
     50 H26         5.5701  -13.9857  -11.9275 H         1 <0>         0.0647
     51 H27         7.1006  -13.3963  -11.2358 H         1 <0>         0.0648
     52 H28         5.7235  -16.0268  -10.5279 H         1 <0>         0.0624
     53 H29         7.1602  -15.8534  -11.5643 H         1 <0>         0.0642
     54 H30         7.8020  -16.4650   -9.2485 H         1 <0>         0.0675
     55 H31         8.4039  -14.8441   -9.6713 H         1 <0>         0.0657
     56 H32         7.3857  -14.8536   -7.4104 H         1 <0>         0.0684
     57 H33         5.8552  -15.4429   -8.1022 H         1 <0>         0.0674
@<TRIPOS>BOND
     1    1    2 1
     2    1   25 1
     3    1   26 1
     4    1   27 1
     5    2    3 1
     6    3    4 1
     7    3   28 1
     8    3   29 1
     9    4    5 1
    10    4   30 1
    11    4   31 1
    12    5    6 1
    13    6    7 1
    14    6   32 1
    15    6   33 1
    16    7    8 1
    17    7   34 1
    18    7   35 1
    19    8    9 1
    20    8   36 1
    21    8   37 1
    22    9   10 am
    23    9   38 1
    24   10   11 2
    25   10   12 1
    26   12   13 1
    27   12   39 1
    28   12   40 1
    29   13   14 1
    30   13   41 1
    31   13   42 1
    32   14   15 1
    33   14   43 1
    34   14   44 1
    35   15   16 am
    36   15   45 1
    37   16   17 2
    38   16   18 am
    39   18   19 1
    40   18   46 1
    41   19   24 1
    42   19   20 1
    43   19   47 1
    44   20   21 1
    45   20   48 1
    46   20   49 1
    47   21   22 1
    48   21   50 1
    49   21   51 1
    50   22   23 1
    51   22   52 1
    52   22   53 1
    53   23   24 1
    54   23   54 1
    55   23   55 1
    56   24   56 1
    57   24   57 1
@<TRIPOS>MOLECULE
ZINC66317553
   51    51     0     0     0
SMALL
USER_CHARGES

@<TRIPOS>ATOM
      1 C1         -0.0187    1.5258    0.0104 C.3       1 <0>        -0.1713
      2 C2          0.0021   -0.0041    0.0020 C.3       1 <0>         0.0734
      3 H1         -1.0205   -0.3814    0.0098 H         1 <0>         0.0873
      4 C3          0.7074   -0.4901   -1.2379 C.2       1 <0>         0.5153
      5 O1          1.7530   -1.0971   -1.1421 O.2       1 <0>        -0.5116
      6 N1          0.1764   -0.2501   -2.4531 N.am      1 <0>        -0.7270
      7 C4          0.8621   -0.7226   -3.6584 C.3       1 <0>         0.1547
      8 C5          0.0668   -0.3279   -4.8761 C.ar      1 <0>        -0.0537
      9 C6         -0.9063   -1.1760   -5.3708 C.ar      1 <0>        -0.1204
     10 C7         -1.6359   -0.8141   -6.4878 C.ar      1 <0>        -0.0168
     11 C8         -1.3926    0.3962   -7.1098 C.ar      1 <0>        -0.6693
     12 C9         -0.4201    1.2447   -6.6146 C.ar      1 <0>        -0.0226
     13 C10         0.3065    0.8846   -5.4951 C.ar      1 <0>        -0.1204
     14 S1         -2.3217    0.8571   -8.5343 S.o2      1 <0>         2.6946
     15 O2         -1.5284    1.7929   -9.2513 O.2       1 <0>        -0.9538
     16 O3         -2.7927   -0.3490   -9.1196 O.2       1 <0>        -0.9541
     17 N2         -3.6578    1.6785   -8.0027 N.pl3     1 <0>        -1.1120
     18 C11        -3.5030    2.9661   -7.3213 C.3       1 <0>         0.1186
     19 C12        -4.8544    3.6817   -7.2701 C.3       1 <0>         0.0515
     20 O4         -5.7603    2.9313   -6.4589 O.3       1 <0>        -0.3906
     21 C13        -7.0592    3.5160   -6.3446 C.3       1 <0>         0.0303
     22 O5          0.6932   -0.4774    1.1597 O.3       1 <0>        -0.3574
     23 C14        -0.1498   -0.6889    2.2940 C.3       1 <0>         0.0643
     24 C15         0.6919   -1.1924    3.4683 C.3       1 <0>        -0.0927
     25 C16        -0.1972   -1.4154    4.6645 C.2       1 <0>        -0.1590
     26 C17        -0.2137   -2.5821    5.2599 C.2       1 <0>        -0.1831
     27 H2          1.0039    1.9031    0.0027 H         1 <0>         0.0725
     28 H3         -0.5459    1.8868   -0.8726 H         1 <0>         0.0713
     29 H4         -0.5289    1.8773    0.9072 H         1 <0>         0.0723
     30 H5         -0.6599    0.2354   -2.5297 H         1 <0>         0.4026
     31 H6          1.8542   -0.2742   -3.7114 H         1 <0>         0.0846
     32 H7          0.9554   -1.8079   -3.6215 H         1 <0>         0.0842
     33 H8         -1.0964   -2.1216   -4.8848 H         1 <0>         0.1366
     34 H9         -2.3957   -1.4770   -6.8747 H         1 <0>         0.1441
     35 H10        -0.2298    2.1901   -7.1008 H         1 <0>         0.1438
     36 H11         1.0637    1.5492   -5.1060 H         1 <0>         0.1368
     37 H12        -4.5429    1.3070   -8.1425 H         1 <0>         0.4243
     38 H13        -3.1416    2.7991   -6.3066 H         1 <0>         0.0750
     39 H14        -2.7865    3.5813   -7.8655 H         1 <0>         0.0966
     40 H15        -4.7230    4.6761   -6.8435 H         1 <0>         0.0679
     41 H16        -5.2574    3.7696   -8.2790 H         1 <0>         0.0622
     42 H17        -6.9735    4.5070   -5.8988 H         1 <0>         0.0435
     43 H18        -7.5080    3.6004   -7.3343 H         1 <0>         0.0438
     44 H19        -7.6867    2.8867   -5.7136 H         1 <0>         0.0883
     45 H20        -0.6318    0.2495    2.5684 H         1 <0>         0.0536
     46 H21        -0.9106   -1.4298    2.0482 H         1 <0>         0.0523
     47 H22         1.1738   -2.1307    3.1938 H         1 <0>         0.0773
     48 H23         1.4526   -0.4515    3.7141 H         1 <0>         0.0825
     49 H24        -0.8207   -0.6133    5.0308 H         1 <0>         0.1109
     50 H25         0.4098   -3.3842    4.8935 H         1 <0>         0.0985
     51 H26        -0.8509   -2.7419    6.1171 H         1 <0>         0.1004
@<TRIPOS>BOND
     1    1    2 1
     2    1   27 1
     3    1   28 1
     4    1   29 1
     5    2    3 1
     6    2    4 1
     7    2   22 1
     8    4    5 2
     9    4    6 am
    10    6    7 1
    11    6   30 1
    12    7    8 1
    13    7   31 1
    14    7   32 1
    15    8   13 ar
    16    8    9 ar
    17    9   10 ar
    18    9   33 1
    19   10   11 ar
    20   10   34 1
    21   11   12 ar
    22   11   14 1
    23   12   13 ar
    24   12   35 1
    25   13   36 1
    26   14   15 2
    27   14   16 2
    28   14   17 1
    29   17   18 1
    30   17   37 1
    31   18   19 1
    32   18   38 1
    33   18   39 1
    34   19   20 1
    35   19   40 1
    36   19   41 1
    37   20   21 1
    38   21   42 1
    39   21   43 1
    40   21   44 1
    41   22   23 1
    42   23   24 1
    43   23   45 1
    44   23   46 1
    45   24   25 1
    46   24   47 1
    47   24   48 1
    48   25   26 2
    49   25   49 1
    50   26   50 1
    51   26   51 1
@<TRIPOS>MOLECULE
ZINC01737600
   48    50     0     0     0
SMALL
USER_CHARGES
2-[2-(2-oxo-4-phenyl-chromen-7-yl)oxypropanoylamino]butanedioic acid
@<TRIPOS>ATOM
      1 C1          2.7234   -0.0294   -1.1775 C.3       1 <0>        -0.1709
      2 C2          2.4586    0.9229   -0.0096 C.3       1 <0>         0.0652
      3 H1          2.3824    0.3512    0.9153 H         1 <0>         0.0996
      4 C3          1.1691    1.6651   -0.2491 C.2       1 <0>         0.5248
      5 O1          1.1825    2.8667   -0.4128 O.2       1 <0>        -0.5353
      6 N1          0.0010    0.9935   -0.2813 N.am      1 <0>        -0.6639
      7 C4         -1.2519    1.7142   -0.5201 C.3       1 <0>         0.1259
      8 H2         -1.2010    2.6967   -0.0509 H         1 <0>         0.0893
      9 C5         -2.4171    0.9233    0.0778 C.3       1 <0>        -0.1501
     10 C6         -2.2692    0.8665    1.5765 C.2       1 <0>         0.4629
     11 O2         -1.3284    1.4036    2.1114 O.co2     1 <0>        -0.6349
     12 C7         -1.4634    1.8762   -2.0034 C.2       1 <0>         0.4633
     13 O3         -0.6509    1.4350   -2.7812 O.co2     1 <0>        -0.6419
     14 O4          3.5340    1.8581    0.0957 O.3       1 <0>        -0.2650
     15 C8          4.6278    1.4632    0.7962 C.ar      1 <0>         0.2113
     16 C9          4.7075    0.1573    1.2751 C.ar      1 <0>        -0.2269
     17 C10         5.8015   -0.2535    1.9815 C.ar      1 <0>        -0.0132
     18 C11         6.8469    0.6407    2.2251 C.ar      1 <0>        -0.2017
     19 C12         8.0385    0.2246    2.9834 C.2       1 <0>         0.0947
     20 C13         9.0344    1.1611    3.1866 C.2       1 <0>        -0.2696
     21 C14         8.8797    2.4591    2.6710 C.2       1 <0>         0.5161
     22 O5          9.7623    3.2787    2.8551 O.2       1 <0>        -0.4768
     23 O6          7.7863    2.8212    1.9817 O.3       1 <0>        -0.2690
     24 C15         6.7740    1.9594    1.7450 C.ar      1 <0>         0.1948
     25 C16         5.6583    2.3601    1.0245 C.ar      1 <0>        -0.1800
     26 C17         8.1658   -1.1519    3.5105 C.ar      1 <0>        -0.0673
     27 C18         7.1271   -1.7175    4.2516 C.ar      1 <0>        -0.0945
     28 C19         7.2498   -3.0036    4.7354 C.ar      1 <0>        -0.1178
     29 C20         8.4041   -3.7284    4.4971 C.ar      1 <0>        -0.1075
     30 C21         9.4398   -3.1715    3.7679 C.ar      1 <0>        -0.1215
     31 C22         9.3275   -1.8885    3.2737 C.ar      1 <0>        -0.0924
     32 H3          2.7996    0.5423   -2.1024 H         1 <0>         0.0804
     33 H4          3.6561   -0.5662   -1.0043 H         1 <0>         0.0649
     34 H5          1.9031   -0.7427   -1.2578 H         1 <0>         0.0859
     35 H6         -0.0097    0.0325   -0.1504 H         1 <0>         0.3872
     36 H7         -3.3571    1.4132   -0.1762 H         1 <0>         0.0880
     37 H8         -2.4143   -0.0891   -0.3261 H         1 <0>         0.0602
     38 H9          3.8994   -0.5339    1.0867 H         1 <0>         0.1487
     39 H10         5.8586   -1.2669    2.3505 H         1 <0>         0.1418
     40 H11         9.9249    0.8973    3.7379 H         1 <0>         0.1599
     41 H12         5.5917    3.3695    0.6461 H         1 <0>         0.1559
     42 H13         6.2276   -1.1510    4.4424 H         1 <0>         0.1331
     43 H14         6.4450   -3.4440    5.3052 H         1 <0>         0.1303
     44 H15         8.4969   -4.7334    4.8815 H         1 <0>         0.1249
     45 H16        10.3380   -3.7427    3.5851 H         1 <0>         0.1266
     46 H17        10.1365   -1.4550    2.7044 H         1 <0>         0.1283
     47 O7         -3.1827    0.2193    2.3170 O.co2     1 <0>        -0.7899
     48 O8         -2.5544    2.5107   -2.4604 O.co2     1 <0>        -0.7738
@<TRIPOS>BOND
     1    1    2 1
     2    1   32 1
     3    1   33 1
     4    1   34 1
     5    2    3 1
     6    2    4 1
     7    2   14 1
     8    4    5 2
     9    4    6 am
    10    6    7 1
    11    6   35 1
    12    7    8 1
    13    7    9 1
    14    7   12 1
    15    9   10 1
    16    9   36 1
    17    9   37 1
    18   10   11 2
    19   10   47 1
    20   12   13 2
    21   12   48 1
    22   14   15 1
    23   15   25 ar
    24   15   16 ar
    25   16   17 ar
    26   16   38 1
    27   17   18 ar
    28   17   39 1
    29   18   24 ar
    30   18   19 1
    31   19   20 2
    32   19   26 1
    33   20   21 1
    34   20   40 1
    35   21   22 2
    36   21   23 1
    37   23   24 1
    38   24   25 ar
    39   25   41 1
    40   26   31 ar
    41   26   27 ar
    42   27   28 ar
    43   27   42 1
    44   28   29 ar
    45   28   43 1
    46   29   30 ar
    47   29   44 1
    48   30   31 ar
    49   30   45 1
    50   31   46 1
@<TRIPOS>MOLECULE
ZINC13422373
   40    40     0     0     0
SMALL
USER_CHARGES
4-[2-oxo-2-(sec-butylcarbamoylamino)ethoxy]benzene-1,3-dicarboxylic acid
@<TRIPOS>ATOM
      1 C1         -2.5290   -2.2714   -2.0697 C.3       1 <0>        -0.1542
      2 C2         -2.4420   -2.6831   -0.5987 C.3       1 <0>        -0.1290
      3 C3         -1.1360   -2.1586    0.0013 C.3       1 <0>         0.1555
      4 H1         -0.2950   -2.5073   -0.5981 H         1 <0>         0.0907
      5 C4         -0.9896   -2.6746    1.4342 C.3       1 <0>        -0.1661
      6 N1         -1.1558   -0.6938    0.0094 N.am      1 <0>        -0.7366
      7 C5          0.0021   -0.0041    0.0020 C.2       1 <0>         0.6949
      8 O1          1.0627   -0.5974   -0.0113 O.2       1 <0>        -0.5265
      9 N2         -0.0162    1.3436    0.0094 N.am      1 <0>        -0.6921
     10 C6          1.1417    2.0332    0.0021 C.2       1 <0>         0.5084
     11 O2          2.1997    1.4414   -0.0112 O.2       1 <0>        -0.4156
     12 C7          1.1213    3.5401    0.0104 C.3       1 <0>         0.0395
     13 O3          2.4619    4.0347    0.0002 O.3       1 <0>        -0.2474
     14 C8          2.6211    5.3799    0.0059 C.ar      1 <0>         0.1448
     15 C9          1.5078    6.2114    0.0210 C.ar      1 <0>        -0.2501
     16 C10         1.6637    7.5785    0.0268 C.ar      1 <0>        -0.0414
     17 C11         2.9454    8.1425    0.0176 C.ar      1 <0>        -0.1728
     18 C12         4.0690    7.3187    0.0020 C.ar      1 <0>        -0.0017
     19 C13         3.9113    5.9343    0.0024 C.ar      1 <0>        -0.1609
     20 C14         5.0946    5.0547   -0.0075 C.2       1 <0>         0.4930
     21 O4          4.9545    3.8478   -0.0126 O.co2     1 <0>        -0.6144
     22 C15         3.1061    9.6088    0.0239 C.2       1 <0>         0.4990
     23 O5          4.2182   10.0982    0.0158 O.co2     1 <0>        -0.6336
     24 H2         -1.6841   -2.6916   -2.6152 H         1 <0>         0.0567
     25 H3         -3.4595   -2.6450   -2.4971 H         1 <0>         0.0542
     26 H4         -2.5055   -1.1842   -2.1447 H         1 <0>         0.0565
     27 H5         -2.4656   -3.7702   -0.5237 H         1 <0>         0.0780
     28 H6         -3.2870   -2.2629   -0.0532 H         1 <0>         0.0671
     29 H7         -0.0591   -2.3009    1.8617 H         1 <0>         0.0645
     30 H8         -1.8306   -2.3259    2.0336 H         1 <0>         0.0553
     31 H9         -0.9748   -3.7644    1.4282 H         1 <0>         0.0641
     32 H10        -2.0023   -0.2203    0.0200 H         1 <0>         0.3952
     33 H11        -0.8627    1.8171    0.0160 H         1 <0>         0.4064
     34 H12         0.5941    3.9012   -0.8727 H         1 <0>         0.0893
     35 H13         0.6111    3.8916    0.9072 H         1 <0>         0.0894
     36 H14         0.5165    5.7829    0.0286 H         1 <0>         0.1144
     37 H15         0.7943    8.2191    0.0389 H         1 <0>         0.1258
     38 H16         5.0584    7.7515   -0.0052 H         1 <0>         0.1425
     39 O6          6.3314    5.5894   -0.0109 O.co2     1 <0>        -0.7677
     40 O7          2.0196   10.4055    0.0385 O.co2     1 <0>        -0.7751
@<TRIPOS>BOND
     1    1    2 1
     2    1   24 1
     3    1   25 1
     4    1   26 1
     5    2    3 1
     6    2   27 1
     7    2   28 1
     8    3    4 1
     9    3    5 1
    10    3    6 1
    11    5   29 1
    12    5   30 1
    13    5   31 1
    14    6    7 am
    15    6   32 1
    16    7    8 2
    17    7    9 am
    18    9   10 am
    19    9   33 1
    20   10   11 2
    21   10   12 1
    22   12   13 1
    23   12   34 1
    24   12   35 1
    25   13   14 1
    26   14   19 ar
    27   14   15 ar
    28   15   16 ar
    29   15   36 1
    30   16   17 ar
    31   16   37 1
    32   17   18 ar
    33   17   22 1
    34   18   19 ar
    35   18   38 1
    36   19   20 1
    37   20   21 2
    38   20   39 1
    39   22   23 2
    40   22   40 1
@<TRIPOS>MOLECULE
ZINC31818838
   51    53     0     0     0
SMALL
USER_CHARGES
1-[(1R)-2-hydroxy-1-[6-[(4-hydroxy-4-oxo-butanoyl)amino]-1H-indol-3-yl]-2-oxo-ethyl]piperidine-4-carboxylic acid
@<TRIPOS>ATOM
      1 C1          2.9080    3.8780   -0.0072 C.ar      1 <0>        -0.1697
      2 C2          1.5685    4.1432   -0.0005 C.ar      1 <0>        -0.0301
      3 C3          0.6512    3.0904   -0.0093 C.ar      1 <0>        -0.0943
      4 C4          1.1070    1.7592   -0.0252 C.ar      1 <0>         0.1135
      5 C5          2.4738    1.5058   -0.0316 C.ar      1 <0>        -0.1444
      6 C6          3.3677    2.5623   -0.0234 C.ar      1 <0>         0.1765
      7 N1          4.7443    2.3076   -0.0306 N.am      1 <0>        -0.6899
      8 C7          5.2354    1.2392    0.6281 C.2       1 <0>         0.5125
      9 O1          4.4788    0.4526    1.1572 O.2       1 <0>        -0.5273
     10 C8          6.7246    1.0220    0.7073 C.3       1 <0>        -0.1163
     11 C9          7.0125   -0.2518    1.5044 C.3       1 <0>        -0.1424
     12 C10         8.5016   -0.4691    1.5836 C.2       1 <0>         0.4615
     13 O2          9.2553    0.3145    1.0565 O.co2     1 <0>        -0.6453
     14 O3          8.9907   -1.5331    2.2396 O.co2     1 <0>        -0.7740
     15 N2         -0.0063    0.9486   -0.0304 N.pl3     1 <0>        -0.5962
     16 H1          0.1098   -0.1452   -0.0381 H         1 <0>         0.4463
     17 C11        -1.1406    1.7161   -0.0245 C.2       1 <0>         0.0473
     18 C12        -0.8124    3.0172   -0.0055 C.2       1 <0>        -0.1691
     19 C13        -1.7680    4.1824    0.0102 C.3       1 <0>         0.0685
     20 H2         -1.4103    4.9750   -0.6635 H         1 <0>         0.1280
     21 C14        -1.8913    4.7121    1.4156 C.2       1 <0>         0.4691
     22 O4         -2.9670    4.7209    1.9657 O.co2     1 <0>        -0.6187
     23 O5         -0.8060    5.1741    2.0564 O.co2     1 <0>        -0.6964
     24 N3         -3.0863    3.7409   -0.4641 N.4       1 <0>        -0.3747
     25 C15        -2.9884    3.1262   -1.7941 C.3       1 <0>        -0.0143
     26 C16        -4.3488    2.5496   -2.1925 C.3       1 <0>        -0.1160
     27 C17        -5.3899    3.6723   -2.2041 C.3       1 <0>        -0.1437
     28 C18        -5.4377    4.3277   -0.8210 C.3       1 <0>        -0.1140
     29 C19        -4.0457    4.8527   -0.4624 C.3       1 <0>        -0.0141
     30 C20        -6.7442    3.1016   -2.5379 C.2       1 <0>         0.4656
     31 O6         -7.6551    3.2076   -1.7512 O.co2     1 <0>        -0.6316
     32 O7         -6.9384    2.4756   -3.7093 O.co2     1 <0>        -0.7650
     33 H3          3.6161    4.6935   -0.0003 H         1 <0>         0.1247
     34 H4          1.2192    5.1651    0.0113 H         1 <0>         0.1281
     35 H5          2.8367    0.4886   -0.0437 H         1 <0>         0.1374
     36 H6          5.4251    2.9794   -0.5739 H         1 <0>         0.4339
     37 H7          7.1347    0.9196   -0.3082 H         1 <0>         0.0949
     38 H8          7.1945    1.8817    1.2075 H         1 <0>         0.0960
     39 H9          6.6024   -0.1494    2.5199 H         1 <0>         0.0715
     40 H10         6.5426   -1.1114    1.0042 H         1 <0>         0.0704
     41 H11        -2.1497    1.3312   -0.0313 H         1 <0>         0.1621
     42 H12        -2.6839    3.8869   -2.5281 H         1 <0>         0.1152
     43 H13        -2.2412    2.3192   -1.7710 H         1 <0>         0.1250
     44 H14        -4.2781    2.1023   -3.1950 H         1 <0>         0.1070
     45 H15        -4.6468    1.7783   -1.4671 H         1 <0>         0.0753
     46 H16        -5.1299    4.4198   -2.9681 H         1 <0>         0.0808
     47 H17        -6.1539    5.1625   -0.8354 H         1 <0>         0.0991
     48 H18        -5.7551    3.5851   -0.0741 H         1 <0>         0.0839
     49 H19        -4.0736    5.3114    0.5370 H         1 <0>         0.1588
     50 H20        -3.7363    5.6052   -1.2027 H         1 <0>         0.1030
     51 H21        -3.4589    2.9754    0.2324 H         1 <0>         0.4314
@<TRIPOS>BOND
     1    1    6 ar
     2    1    2 ar
     3    1   33 1
     4    2    3 ar
     5    2   34 1
     6    3   18 1
     7    3    4 ar
     8    4    5 ar
     9    4   15 1
    10    5    6 ar
    11    5   35 1
    12    6    7 1
    13    7    8 am
    14    7   36 1
    15    8    9 2
    16    8   10 1
    17   10   11 1
    18   10   37 1
    19   10   38 1
    20   11   12 1
    21   11   39 1
    22   11   40 1
    23   12   13 2
    24   12   14 1
    25   15   16 1
    26   15   17 1
    27   17   18 2
    28   17   41 1
    29   18   19 1
    30   19   20 1
    31   19   21 1
    32   19   24 1
    33   21   22 2
    34   21   23 1
    35   24   29 1
    36   24   25 1
    37   24   51 1
    38   25   26 1
    39   25   42 1
    40   25   43 1
    41   26   27 1
    42   26   44 1
    43   26   45 1
    44   27   28 1
    45   27   30 1
    46   27   46 1
    47   28   29 1
    48   28   47 1
    49   28   48 1
    50   29   49 1
    51   29   50 1
    52   30   31 2
    53   30   32 1
@<TRIPOS>MOLECULE
ZINC37407120
   35    35     0     0     0
SMALL
USER_CHARGES

@<TRIPOS>ATOM
      1 C1         -0.0184    1.5028    0.0103 C.3       1 <0>        -0.0683
      2 C2          0.0021   -0.0041    0.0020 C.2       1 <0>        -0.2177
      3 C3         -1.0572   -0.8513    0.0021 C.2       1 <0>        -0.1787
      4 C4         -0.8294   -2.2062   -0.0063 C.2       1 <0>        -0.1218
      5 C5          0.5064   -2.5921   -0.0143 C.2       1 <0>        -0.1659
      6 S1          1.3419   -1.0173   -0.0168 S.3       1 <0>         0.1893
      7 C6          1.0588   -3.8957   -0.0234 C.2       1 <0>         0.0074
      8 C7          2.4051   -4.0617   -0.0303 C.2       1 <0>        -0.1907
      9 C8          2.9571   -5.3643   -0.0394 C.2       1 <0>         0.5414
     10 O1          2.2236   -6.3365   -0.0410 O.2       1 <0>        -0.5512
     11 N1          4.2947   -5.5293   -0.0463 N.am      1 <0>        -0.6905
     12 C9          4.8663   -6.8782   -0.0557 C.3       1 <0>         0.0817
     13 H1          4.2357   -7.5442    0.5332 H         1 <0>         0.0855
     14 C10         6.2718   -6.8407    0.5478 C.3       1 <0>        -0.0938
     15 C11         6.1826   -6.4492    2.0242 C.3       1 <0>        -0.0741
     16 S2          7.8489   -6.4047    2.7397 S.3       1 <0>        -0.2751
     17 C12         7.5716   -5.9315    4.4688 C.3       1 <0>        -0.1205
     18 C13         4.9419   -7.3818   -1.4740 C.2       1 <0>         0.4937
     19 O2          5.0943   -6.5951   -2.3930 O.co2     1 <0>        -0.6877
     20 O3          4.8507   -8.5759   -1.7026 O.co2     1 <0>        -0.6911
     21 H2          1.0042    1.8801    0.0026 H         1 <0>         0.0709
     22 H3         -0.5455    1.8639   -0.8728 H         1 <0>         0.0778
     23 H4         -0.5286    1.8543    0.9071 H         1 <0>         0.0773
     24 H5         -2.0661   -0.4660    0.0090 H         1 <0>         0.1292
     25 H6         -1.6356   -2.9248   -0.0063 H         1 <0>         0.1430
     26 H7          0.4083   -4.7578   -0.0248 H         1 <0>         0.1500
     27 H8          3.0555   -3.1996   -0.0288 H         1 <0>         0.1211
     28 H9          4.8789   -4.7550   -0.0450 H         1 <0>         0.3933
     29 H10         6.7312   -7.8252    0.4601 H         1 <0>         0.0866
     30 H11         6.8771   -6.1083    0.0136 H         1 <0>         0.0757
     31 H12         5.7231   -5.4646    2.1119 H         1 <0>         0.0789
     32 H13         5.5772   -7.1815    2.5583 H         1 <0>         0.0799
     33 H14         7.0829   -4.9579    4.5051 H         1 <0>         0.0730
     34 H15         6.9370   -6.6747    4.9516 H         1 <0>         0.0735
     35 H16         8.5281   -5.8776    4.9886 H         1 <0>         0.0976
@<TRIPOS>BOND
     1    1    2 1
     2    1   21 1
     3    1   22 1
     4    1   23 1
     5    2    6 1
     6    2    3 2
     7    3    4 1
     8    3   24 1
     9    4    5 2
    10    4   25 1
    11    5    6 1
    12    5    7 1
    13    7    8 2
    14    7   26 1
    15    8    9 1
    16    8   27 1
    17    9   10 2
    18    9   11 am
    19   11   12 1
    20   11   28 1
    21   12   13 1
    22   12   14 1
    23   12   18 1
    24   14   15 1
    25   14   29 1
    26   14   30 1
    27   15   16 1
    28   15   31 1
    29   15   32 1
    30   16   17 1
    31   17   33 1
    32   17   34 1
    33   17   35 1
    34   18   19 2
    35   18   20 1
@<TRIPOS>MOLECULE
ZINC16914686
   48    50     0     0     0
SMALL
USER_CHARGES

@<TRIPOS>ATOM
      1 C1         -3.0049    1.1669    0.6460 C.3       1 <0>        -0.0910
      2 C2         -3.8811    0.0606    1.1745 C.ar      1 <0>        -0.1029
      3 C3         -4.8365   -0.5132    0.3590 C.ar      1 <0>        -0.1320
      4 C4         -5.6427   -1.5319    0.8451 C.ar      1 <0>         0.0411
      5 C5         -5.4901   -1.9752    2.1509 C.ar      1 <0>        -0.1299
      6 C6         -4.5358   -1.4023    2.9677 C.ar      1 <0>        -0.1391
      7 C7         -3.7241   -0.3861    2.4799 C.ar      1 <0>         0.1621
      8 N1         -2.7523    0.1914    3.3057 N.2       1 <0>        -0.5767
      9 C8         -2.2353   -0.5202    4.3565 C.2       1 <0>         0.4524
     10 N2         -2.4309   -1.7933    4.6622 N.2       1 <0>        -0.7139
     11 C9         -1.8715   -2.3617    5.7072 C.2       1 <0>         0.5251
     12 O1         -2.0593   -3.5370    5.9786 O.2       1 <0>        -0.5155
     13 C10        -1.0000   -1.4976    6.5373 C.2       1 <0>        -0.2027
     14 C11        -0.2971   -1.7941    7.6599 C.2       1 <0>         0.0069
     15 C12        -0.2005   -3.1850    8.1196 C.ar      1 <0>        -0.0910
     16 C13        -0.1019   -4.2271    7.1893 C.ar      1 <0>        -0.0230
     17 C14        -0.0115   -5.5310    7.6237 C.ar      1 <0>        -0.1964
     18 C15        -0.0179   -5.8161    8.9828 C.ar      1 <0>         0.1329
     19 C16        -0.1157   -4.7843    9.9158 C.ar      1 <0>         0.0666
     20 C17        -0.2010   -3.4735    9.4900 C.ar      1 <0>        -0.1473
     21 O2         -0.1215   -5.0687   11.2456 O.3       1 <0>        -0.3019
     22 C18        -0.2243   -3.9631   12.1451 C.3       1 <0>         0.0297
     23 O3          0.0711   -7.1042    9.4048 O.3       1 <0>        -0.2691
     24 C19         0.2773   -8.1022    8.4030 C.3       1 <0>         0.0112
     25 H1          0.9138   -7.6999    7.6149 H         1 <0>         0.0670
     26 C20        -1.0710   -8.5148    7.8090 C.3       1 <0>        -0.1571
     27 C21         0.9428   -9.3046    9.0214 C.2       1 <0>         0.5078
     28 O4          1.1327   -9.3445   10.2251 O.co2     1 <0>        -0.6727
     29 O5          1.2913  -10.2375    8.3180 O.co2     1 <0>        -0.6921
     30 S1         -1.1286    0.0440    5.6397 S.3       1 <0>        -0.1483
     31 O6         -6.5835   -2.0960    0.0415 O.3       1 <0>        -0.5050
     32 H2         -2.1085    0.7380    0.1982 H         1 <0>         0.0551
     33 H3         -3.5513    1.7347   -0.1071 H         1 <0>         0.0469
     34 H4         -2.7212    1.8282    1.4647 H         1 <0>         0.0749
     35 H5         -4.9562   -0.1685   -0.6575 H         1 <0>         0.1144
     36 H6         -6.1183   -2.7684    2.5286 H         1 <0>         0.1127
     37 H7         -4.4176   -1.7470    3.9844 H         1 <0>         0.1431
     38 H8          0.1913   -1.0068    8.2149 H         1 <0>         0.1263
     39 H9         -0.0971   -4.0084    6.1317 H         1 <0>         0.1284
     40 H10         0.0641   -6.3339    6.9054 H         1 <0>         0.1346
     41 H11        -0.2719   -2.6733   10.2118 H         1 <0>         0.1281
     42 H12         0.6204   -3.2912   11.9929 H         1 <0>         0.0477
     43 H13        -1.1540   -3.4264   11.9563 H         1 <0>         0.0475
     44 H14        -0.2177   -4.3283   13.1720 H         1 <0>         0.0918
     45 H15        -1.7074   -8.9171    8.5972 H         1 <0>         0.0569
     46 H16        -1.5523   -7.6451    7.3617 H         1 <0>         0.0532
     47 H17        -0.9137   -9.2760    7.0449 H         1 <0>         0.0702
     48 H18        -6.2647   -2.8568   -0.4631 H         1 <0>         0.3729
@<TRIPOS>BOND
     1    1    2 1
     2    1   32 1
     3    1   33 1
     4    1   34 1
     5    2    7 ar
     6    2    3 ar
     7    3    4 ar
     8    3   35 1
     9    4    5 ar
    10    4   31 1
    11    5    6 ar
    12    5   36 1
    13    6    7 ar
    14    6   37 1
    15    7    8 1
    16    8    9 1
    17    9   30 1
    18    9   10 2
    19   10   11 1
    20   11   12 2
    21   11   13 1
    22   13   14 2
    23   13   30 1
    24   14   15 1
    25   14   38 1
    26   15   20 ar
    27   15   16 ar
    28   16   17 ar
    29   16   39 1
    30   17   18 ar
    31   17   40 1
    32   18   19 ar
    33   18   23 1
    34   19   20 ar
    35   19   21 1
    36   20   41 1
    37   21   22 1
    38   22   42 1
    39   22   43 1
    40   22   44 1
    41   23   24 1
    42   24   25 1
    43   24   26 1
    44   24   27 1
    45   26   45 1
    46   26   46 1
    47   26   47 1
    48   27   28 2
    49   27   29 1
    50   31   48 1
@<TRIPOS>MOLECULE
ZINC03206981
   36    36     0     0     0
SMALL
USER_CHARGES
2-bromo-5-(5-carboxypentylsulfamoyl)benzoic acid
@<TRIPOS>ATOM
      1 C1         -0.7155    3.1463    2.0029 C.ar      1 <0>        -0.0241
      2 C2         -1.4290    3.5368    3.1219 C.ar      1 <0>        -0.1304
      3 C3         -2.3496    2.6797    3.6909 C.ar      1 <0>        -0.0142
      4 C4         -2.5635    1.4176    3.1300 C.ar      1 <0>        -0.1142
      5 C5         -1.8433    1.0334    1.9971 C.ar      1 <0>         0.0299
      6 C6         -0.9267    1.9002    1.4394 C.ar      1 <0>        -0.6841
      7 S1         -0.0172    1.4168    0.0098 S.o2      1 <0>         2.6993
      8 O1          0.0021   -0.0041    0.0020 O.2       1 <0>        -0.9584
      9 O2          1.1718    2.1948    0.0027 O.2       1 <0>        -0.9634
     10 N1         -0.8975    1.8855   -1.3122 N.pl3     1 <0>        -1.1157
     11 C7         -1.1248    3.3089   -1.5738 C.3       1 <0>         0.1135
     12 C8         -1.6217    3.4906   -3.0094 C.3       1 <0>        -0.1247
     13 C9         -1.8591    4.9772   -3.2826 C.3       1 <0>        -0.1195
     14 C10        -2.3560    5.1589   -4.7182 C.3       1 <0>        -0.0980
     15 C11        -2.5934    6.6455   -4.9914 C.3       1 <0>        -0.1582
     16 C12        -3.0829    6.8245   -6.4054 C.2       1 <0>         0.4580
     17 O3         -3.2271    5.8618   -7.1212 O.co2     1 <0>        -0.6426
     18 C13        -3.5467    0.4951    3.7322 C.2       1 <0>         0.4819
     19 O4         -4.1717    0.8324    4.7178 O.co2     1 <0>        -0.5957
     20 Br1        -3.3190    3.2122    5.2247 Br        1 <0>        -0.0173
     21 H1          0.0070    3.8188    1.5645 H         1 <0>         0.1425
     22 H2         -1.2623    4.5125    3.5538 H         1 <0>         0.1366
     23 H3         -2.0034    0.0594    1.5587 H         1 <0>         0.1549
     24 H4         -1.2626    1.2175   -1.9134 H         1 <0>         0.4194
     25 H5         -1.8729    3.6910   -0.8792 H         1 <0>         0.0661
     26 H6         -0.1917    3.8563   -1.4402 H         1 <0>         0.0793
     27 H7         -0.8736    3.1085   -3.7039 H         1 <0>         0.0706
     28 H8         -2.5547    2.9431   -3.1429 H         1 <0>         0.0708
     29 H9         -2.6072    5.3593   -2.5880 H         1 <0>         0.0615
     30 H10        -0.9260    5.5247   -3.1490 H         1 <0>         0.0610
     31 H11        -1.6079    4.7768   -5.4127 H         1 <0>         0.0595
     32 H12        -3.2890    4.6114   -4.8517 H         1 <0>         0.0602
     33 H13        -3.3415    7.0276   -4.2968 H         1 <0>         0.0625
     34 H14        -1.6604    7.1930   -4.8578 H         1 <0>         0.0619
     35 O5         -3.3586    8.0534   -6.8696 O.co2     1 <0>        -0.7828
     36 O6         -3.7507   -0.7206    3.1887 O.co2     1 <0>        -0.7462
@<TRIPOS>BOND
     1    1    6 ar
     2    1    2 ar
     3    1   21 1
     4    2    3 ar
     5    2   22 1
     6    3    4 ar
     7    3   20 1
     8    4    5 ar
     9    4   18 1
    10    5    6 ar
    11    5   23 1
    12    6    7 1
    13    7    8 2
    14    7    9 2
    15    7   10 1
    16   10   11 1
    17   10   24 1
    18   11   12 1
    19   11   25 1
    20   11   26 1
    21   12   13 1
    22   12   27 1
    23   12   28 1
    24   13   14 1
    25   13   29 1
    26   13   30 1
    27   14   15 1
    28   14   31 1
    29   14   32 1
    30   15   16 1
    31   15   33 1
    32   15   34 1
    33   16   17 2
    34   16   35 1
    35   18   19 2
    36   18   36 1
@<TRIPOS>MOLECULE
ZINC13347933
   41    42     0     0     0
SMALL
USER_CHARGES
(3S)-3-(4-fluorophenyl)-3-[[4-[(E)-3-hydroxy-3-oxo-prop-1-enyl]phenyl]sulfonylamino]propanoic acid
@<TRIPOS>ATOM
      1 C1          0.5534    0.4989   -0.6777 C.ar      1 <0>        -0.1416
      2 C2          1.6315    1.3534   -0.5851 C.ar      1 <0>        -0.0178
      3 C3          1.4300    2.7186   -0.4790 C.ar      1 <0>        -0.6908
      4 C4          0.1468    3.2371   -0.4649 C.ar      1 <0>        -0.0124
      5 C5         -0.9417    2.3956   -0.5566 C.ar      1 <0>        -0.1411
      6 C6         -0.7463    1.0154   -0.6694 C.ar      1 <0>         0.0224
      7 C7         -1.9024    0.1108   -0.7739 C.2       1 <0>        -0.1343
      8 C8         -3.1547    0.6128   -0.7656 C.2       1 <0>        -0.1258
      9 C9         -4.3035   -0.2861   -0.8694 C.2       1 <0>         0.4737
     10 O1         -4.1300   -1.4862   -0.9632 O.co2     1 <0>        -0.6338
     11 S1          2.8144    3.8023   -0.3618 S.o2      1 <0>         2.6942
     12 O2          2.3518    4.9845    0.2767 O.2       1 <0>        -0.9530
     13 O3          3.8917    3.0309    0.1515 O.2       1 <0>        -0.9725
     14 N1          3.2327    4.2310   -1.9057 N.pl3     1 <0>        -1.1123
     15 C10         2.3129    5.0307   -2.7186 C.3       1 <0>         0.2091
     16 H1          1.2919    4.8773   -2.3690 H         1 <0>         0.1015
     17 C11         2.6777    6.5114   -2.5937 C.3       1 <0>        -0.1727
     18 C12         1.6310    7.3466   -3.2849 C.2       1 <0>         0.4687
     19 O4          0.6302    6.8251   -3.7168 O.co2     1 <0>        -0.6333
     20 C13         2.4191    4.6071   -4.1609 C.ar      1 <0>        -0.0784
     21 C14         3.6560    4.3185   -4.7067 C.ar      1 <0>        -0.0897
     22 C15         3.7540    3.9245   -6.0277 C.ar      1 <0>        -0.1642
     23 C16         2.6140    3.8301   -6.8078 C.ar      1 <0>         0.0859
     24 C17         1.3763    4.1248   -6.2616 C.ar      1 <0>        -0.1576
     25 C18         1.2801    4.5128   -4.9387 C.ar      1 <0>        -0.0362
     26 F1          2.7092    3.4512   -8.1011 F         1 <0>        -0.1497
     27 H2          0.7122   -0.5661   -0.7608 H         1 <0>         0.1314
     28 H3          2.6359    0.9564   -0.5951 H         1 <0>         0.1350
     29 H4         -0.0023    4.3036   -0.3821 H         1 <0>         0.1420
     30 H5         -1.9424    2.8017   -0.5457 H         1 <0>         0.1376
     31 H6         -1.7484   -0.9549   -0.8572 H         1 <0>         0.1311
     32 H7         -3.3087    1.6785   -0.6823 H         1 <0>         0.1121
     33 H8          4.0867    3.9526   -2.2719 H         1 <0>         0.4119
     34 H9          2.7245    6.7864   -1.5401 H         1 <0>         0.0859
     35 H10         3.6479    6.6870   -3.0586 H         1 <0>         0.0699
     36 H11         4.5456    4.3972   -4.0995 H         1 <0>         0.1262
     37 H12         4.7199    3.6945   -6.4526 H         1 <0>         0.1279
     38 H13         0.4864    4.0519   -6.8692 H         1 <0>         0.1319
     39 H14         0.3148    4.7427   -4.5124 H         1 <0>         0.1504
     40 O5         -5.5556    0.2159   -0.8611 O.co2     1 <0>        -0.7583
     41 O6          1.8103    8.6699   -3.4208 O.co2     1 <0>        -0.7732
@<TRIPOS>BOND
     1    1    6 ar
     2    1    2 ar
     3    1   27 1
     4    2    3 ar
     5    2   28 1
     6    3    4 ar
     7    3   11 1
     8    4    5 ar
     9    4   29 1
    10    5    6 ar
    11    5   30 1
    12    6    7 1
    13    7    8 2
    14    7   31 1
    15    8    9 1
    16    8   32 1
    17    9   10 2
    18    9   40 1
    19   11   12 2
    20   11   13 2
    21   11   14 1
    22   14   15 1
    23   14   33 1
    24   15   16 1
    25   15   17 1
    26   15   20 1
    27   17   18 1
    28   17   34 1
    29   17   35 1
    30   18   19 2
    31   18   41 1
    32   20   25 ar
    33   20   21 ar
    34   21   22 ar
    35   21   36 1
    36   22   23 ar
    37   22   37 1
    38   23   24 ar
    39   23   26 1
    40   24   25 ar
    41   24   38 1
    42   25   39 1
@<TRIPOS>MOLECULE
ZINC13422207
   47    48     0     0     0
SMALL
USER_CHARGES
4-[(1S)-2-[2-(1-cyclohexenyl)ethylamino]-1-methyl-2-oxo-ethoxy]benzene-1,3-dicarboxylic acid
@<TRIPOS>ATOM
      1 C1          5.5407    3.7294   -1.3371 C.3       1 <0>        -0.1716
      2 C2          5.0227    3.4061    0.0658 C.3       1 <0>         0.0570
      3 H1          5.7066    2.7124    0.5547 H         1 <0>         0.0925
      4 C3          4.9327    4.6756    0.8729 C.2       1 <0>         0.5144
      5 O1          3.8647    5.0344    1.3217 O.2       1 <0>        -0.4904
      6 N1          6.0392    5.4121    1.0961 N.am      1 <0>        -0.7387
      7 C4          5.9517    6.6461    1.8808 C.3       1 <0>         0.1281
      8 C5          7.3384    7.2844    1.9837 C.3       1 <0>        -0.0983
      9 C6          7.2484    8.5539    2.7908 C.2       1 <0>        -0.1153
     10 C7          7.5115    8.4883    4.0565 C.2       1 <0>        -0.1547
     11 C8          7.4549    9.6627    4.9891 C.3       1 <0>        -0.0894
     12 C9          7.4702   10.9693    4.1927 C.3       1 <0>        -0.1199
     13 C10         6.4121   10.8753    3.0860 C.3       1 <0>        -0.1213
     14 C11         6.8652    9.8165    2.0760 C.3       1 <0>        -0.0845
     15 O2          3.7276    2.8100   -0.0304 O.3       1 <0>        -0.2407
     16 C12         3.6802    1.4734   -0.2455 C.ar      1 <0>         0.1473
     17 C13         4.8532    0.7644   -0.4744 C.ar      1 <0>        -0.2528
     18 C14         4.8104   -0.5924   -0.6997 C.ar      1 <0>        -0.0409
     19 C15         3.5850   -1.2701   -0.6941 C.ar      1 <0>        -0.1749
     20 C16         2.4031   -0.5706   -0.4599 C.ar      1 <0>        -0.0019
     21 C17         2.4463    0.8033   -0.2318 C.ar      1 <0>        -0.1637
     22 C18         1.2005    1.5516    0.0170 C.2       1 <0>         0.4942
     23 O3          1.2408    2.7496    0.2156 O.co2     1 <0>        -0.6152
     24 C19         3.5456   -2.7246   -0.9366 C.2       1 <0>         0.4994
     25 O4          2.4823   -3.3126   -0.9322 O.co2     1 <0>        -0.6345
     26 H2          5.6058    2.8112   -1.9209 H         1 <0>         0.0787
     27 H3          4.8568    4.4231   -1.8260 H         1 <0>         0.0707
     28 H4          6.5286    4.1841   -1.2638 H         1 <0>         0.0650
     29 H5          6.8934    5.1251    0.7372 H         1 <0>         0.3968
     30 H6          5.2678    7.3399    1.3918 H         1 <0>         0.0666
     31 H7          5.5826    6.4158    2.8802 H         1 <0>         0.0662
     32 H8          8.0223    6.5907    2.4727 H         1 <0>         0.0740
     33 H9          7.7074    7.5147    0.9843 H         1 <0>         0.0748
     34 H10         7.7894    7.5287    4.4669 H         1 <0>         0.1042
     35 H11         6.5408    9.6107    5.5805 H         1 <0>         0.0731
     36 H12         8.3178    9.6375    5.6546 H         1 <0>         0.0682
     37 H13         7.2361   11.8039    4.8535 H         1 <0>         0.0618
     38 H14         8.4542   11.1154    3.7472 H         1 <0>         0.0621
     39 H15         5.4539   10.5876    3.5188 H         1 <0>         0.0664
     40 H16         6.3147   11.8406    2.5893 H         1 <0>         0.0635
     41 H17         7.7232   10.1897    1.5168 H         1 <0>         0.0719
     42 H18         6.0492    9.6068    1.3845 H         1 <0>         0.0743
     43 H19         5.8017    1.2810   -0.4801 H         1 <0>         0.1156
     44 H20         5.7254   -1.1367   -0.8811 H         1 <0>         0.1249
     45 H21         1.4569   -1.0913   -0.4555 H         1 <0>         0.1415
     46 O5          0.0173    0.9070    0.0241 O.co2     1 <0>        -0.7692
     47 O6          4.6886   -3.4011   -1.1631 O.co2     1 <0>        -0.7755
@<TRIPOS>BOND
     1    1    2 1
     2    1   26 1
     3    1   27 1
     4    1   28 1
     5    2    3 1
     6    2    4 1
     7    2   15 1
     8    4    5 2
     9    4    6 am
    10    6    7 1
    11    6   29 1
    12    7    8 1
    13    7   30 1
    14    7   31 1
    15    8    9 1
    16    8   32 1
    17    8   33 1
    18    9   14 1
    19    9   10 2
    20   10   11 1
    21   10   34 1
    22   11   12 1
    23   11   35 1
    24   11   36 1
    25   12   13 1
    26   12   37 1
    27   12   38 1
    28   13   14 1
    29   13   39 1
    30   13   40 1
    31   14   41 1
    32   14   42 1
    33   15   16 1
    34   16   21 ar
    35   16   17 ar
    36   17   18 ar
    37   17   43 1
    38   18   19 ar
    39   18   44 1
    40   19   20 ar
    41   19   24 1
    42   20   21 ar
    43   20   45 1
    44   21   22 1
    45   22   23 2
    46   22   46 1
    47   24   25 2
    48   24   47 1
@<TRIPOS>MOLECULE
ZINC20457335
   36    37     0     0     0
SMALL
USER_CHARGES
4-[(E)-[(4-carboxyphenyl)methyleneamino]carbamothioyliminomethyl]benzoic acid
@<TRIPOS>ATOM
      1 C1         -3.7068    1.8875    0.0303 C.ar      1 <0>        -0.0753
      2 C2         -2.5045    1.2167    0.0205 C.ar      1 <0>        -0.1078
      3 C3         -1.3048    1.9322    0.0187 C.ar      1 <0>        -0.0648
      4 C4         -1.3230    3.3288    0.0323 C.ar      1 <0>        -0.0982
      5 C5         -2.5238    4.0023    0.0367 C.ar      1 <0>        -0.0556
      6 C6         -3.7265    3.2868    0.0385 C.ar      1 <0>        -0.1292
      7 C7         -5.0105    4.0050    0.0485 C.2       1 <0>         0.3257
      8 N1         -5.0283    5.3128    0.0561 N.2       1 <0>        -0.5422
      9 C8         -6.2054    5.9713    0.0653 C.2       1 <0>         0.5691
     10 S1         -7.6763    5.0952    0.0669 S.2       1 <0>        -0.6761
     11 N2         -6.2237    7.3189    0.0732 N.pl3     1 <0>        -0.5022
     12 N3         -5.0200    8.0358    0.0718 N.2       1 <0>        -0.2536
     13 C9         -5.0376    9.3348    0.0794 C.2       1 <0>         0.1534
     14 C10        -3.7724   10.0883    0.0780 C.ar      1 <0>        -0.0868
     15 C11        -2.5513    9.4054    0.0743 C.ar      1 <0>        -0.0807
     16 C12        -1.3782   10.1046    0.0686 C.ar      1 <0>        -0.0866
     17 C13        -1.3973   11.5029    0.0767 C.ar      1 <0>        -0.0834
     18 C14        -2.6178   12.1858    0.0853 C.ar      1 <0>        -0.0990
     19 C15        -3.7913   11.4873    0.0861 C.ar      1 <0>        -0.0978
     20 C16        -0.1300   12.2578    0.0768 C.2       1 <0>         0.4848
     21 O1         -0.1465   13.4726    0.0843 O.co2     1 <0>        -0.6322
     22 O2          1.0460   11.5999    0.0686 O.co2     1 <0>        -0.7455
     23 C17        -0.0144    1.2103    0.0087 C.2       1 <0>         0.4841
     24 O3          0.0021   -0.0041    0.0020 O.co2     1 <0>        -0.6284
     25 O4          1.1429    1.8996    0.0013 O.co2     1 <0>        -0.7425
     26 H1         -4.6342    1.3340    0.0321 H         1 <0>         0.1294
     27 H2         -2.4890    0.1368    0.0139 H         1 <0>         0.1353
     28 H3         -0.3946    3.8807    0.0350 H         1 <0>         0.1407
     29 H4         -2.5375    5.0822    0.0434 H         1 <0>         0.1381
     30 H5         -5.9555    3.4421    0.0496 H         1 <0>         0.1528
     31 H6         -7.1837    7.8559    0.0807 H         1 <0>         0.4287
     32 H7         -5.9976    9.8718    0.0869 H         1 <0>         0.1220
     33 H8         -2.5365    8.3255    0.0725 H         1 <0>         0.1331
     34 H9         -0.4356    9.5775    0.0620 H         1 <0>         0.1383
     35 H10        -2.6322   13.2657    0.0916 H         1 <0>         0.1314
     36 H11        -4.7337   12.0147    0.0934 H         1 <0>         0.1212
@<TRIPOS>BOND
     1    1    6 ar
     2    1    2 ar
     3    1   26 1
     4    2    3 ar
     5    2   27 1
     6    3    4 ar
     7    3   23 1
     8    4    5 ar
     9    4   28 1
    10    5    6 ar
    11    5   29 1
    12    6    7 1
    13    7    8 2
    14    7   30 1
    15    8    9 1
    16    9   10 2
    17    9   11 1
    18   11   12 1
    19   11   31 1
    20   12   13 2
    21   13   14 1
    22   13   32 1
    23   14   19 ar
    24   14   15 ar
    25   15   16 ar
    26   15   33 1
    27   16   17 ar
    28   16   34 1
    29   17   18 ar
    30   17   20 1
    31   18   19 ar
    32   18   35 1
    33   19   36 1
    34   20   21 2
    35   20   22 1
    36   23   24 2
    37   23   25 1
@<TRIPOS>MOLECULE
ZINC13422786
   44    46     0     0     0
SMALL
USER_CHARGES

@<TRIPOS>ATOM
      1 C1         -0.0169    1.3971    0.0097 C.ar      1 <0>        -0.0540
      2 C2          1.1618    2.1067    0.0023 C.ar      1 <0>        -0.2523
      3 C3          2.3808    1.4396   -0.0134 C.ar      1 <0>         0.1433
      4 C4          2.4129    0.0341   -0.0212 C.ar      1 <0>        -0.1845
      5 C5          1.2188   -0.6847   -0.0132 C.ar      1 <0>        -0.0088
      6 C6          0.0021   -0.0041    0.0020 C.ar      1 <0>        -0.1946
      7 C7         -1.2633   -0.7578    0.0105 C.2       1 <0>         0.5287
      8 O1         -2.3309   -0.1607    0.0243 O.co2     1 <0>        -0.7079
      9 O2         -1.2467   -1.9810    0.0038 O.co2     1 <0>        -0.6924
     10 C8          3.7026   -0.6757   -0.0382 C.2       1 <0>         0.5239
     11 O3          3.7277   -1.8987   -0.0450 O.co2     1 <0>        -0.7013
     12 O4          4.7492   -0.0424   -0.0456 O.co2     1 <0>        -0.6727
     13 O5          3.5375    2.1433   -0.0215 O.3       1 <0>        -0.2471
     14 C9          3.4302    3.5682   -0.0133 C.3       1 <0>         0.0096
     15 C10         4.8091    4.1760   -0.0242 C.2       1 <0>         0.4112
     16 O6          5.7879    3.4592   -0.0377 O.2       1 <0>        -0.4077
     17 C11         4.9680    5.6335   -0.0185 C.2       1 <0>        -0.2432
     18 C12         6.1902    6.3478   -0.0330 C.2       1 <0>        -0.0369
     19 C13         5.8765    7.6735   -0.0209 C.2       1 <0>        -0.0750
     20 N1          4.5037    7.7955    0.0005 N.pl3     1 <0>        -0.5337
     21 H1          4.0149    8.6333    0.0125 H         1 <0>         0.4176
     22 C14         3.9499    6.5741   -0.0040 C.2       1 <0>         0.0847
     23 C15         6.8375    8.7838   -0.0292 C.2       1 <0>         0.6096
     24 O7          8.0322    8.5541   -0.0485 O.2       1 <0>        -0.5226
     25 N2          6.3962   10.0571   -0.0155 N.am      1 <0>        -0.6258
     26 C16         4.9871   10.4754    0.0144 C.3       1 <0>         0.0845
     27 C17         4.9665   12.0183   -0.0056 C.3       1 <0>        -0.1293
     28 C18         6.3470   12.3763   -0.6166 C.3       1 <0>        -0.1339
     29 C19         7.2467   11.2613   -0.0217 C.3       1 <0>         0.1065
     30 H2         -0.9606    1.9221    0.0261 H         1 <0>         0.1181
     31 H3          1.1396    3.1864    0.0083 H         1 <0>         0.1095
     32 H4          1.2360   -1.7645   -0.0194 H         1 <0>         0.1367
     33 H5          2.8815    3.8963   -0.8962 H         1 <0>         0.0826
     34 H6          2.8995    3.8875    0.8837 H         1 <0>         0.0826
     35 H7          7.1828    5.9225   -0.0503 H         1 <0>         0.1596
     36 H8          2.8914    6.3599    0.0048 H         1 <0>         0.1891
     37 H9          4.4662   10.0863   -0.8605 H         1 <0>         0.0706
     38 H10         4.5113   10.1101    0.9246 H         1 <0>         0.0712
     39 H11         4.1581   12.3851   -0.6381 H         1 <0>         0.0862
     40 H12         4.8774   12.4160    1.0053 H         1 <0>         0.0808
     41 H13         6.3188   12.3211   -1.7049 H         1 <0>         0.0782
     42 H14         6.6775   13.3608   -0.2854 H         1 <0>         0.0865
     43 H15         7.5499   11.5168    0.9937 H         1 <0>         0.0702
     44 H16         8.1221   11.1043   -0.6518 H         1 <0>         0.0820
@<TRIPOS>BOND
     1    1    6 ar
     2    1    2 ar
     3    1   30 1
     4    2    3 ar
     5    2   31 1
     6    3    4 ar
     7    3   13 1
     8    4    5 ar
     9    4   10 1
    10    5    6 ar
    11    5   32 1
    12    6    7 1
    13    7    8 2
    14    7    9 1
    15   10   11 2
    16   10   12 1
    17   13   14 1
    18   14   15 1
    19   14   33 1
    20   14   34 1
    21   15   16 2
    22   15   17 1
    23   17   22 2
    24   17   18 1
    25   18   19 2
    26   18   35 1
    27   19   20 1
    28   19   23 1
    29   20   21 1
    30   20   22 1
    31   22   36 1
    32   23   24 2
    33   23   25 am
    34   25   29 1
    35   25   26 1
    36   26   27 1
    37   26   37 1
    38   26   38 1
    39   27   28 1
    40   27   39 1
    41   27   40 1
    42   28   29 1
    43   28   41 1
    44   28   42 1
    45   29   43 1
    46   29   44 1
@<TRIPOS>MOLECULE
ZINC13001375
   47    48     0     0     0
SMALL
USER_CHARGES
methyl (2R)-2-[[4-(cyclopropylsulfamoyl)benzoyl]amino]-4-methylsulfanyl-butanoate
@<TRIPOS>ATOM
      1 C1         -1.6024    3.6877   -2.6117 C.3       1 <0>         0.0353
      2 O1         -0.8892    3.2790   -1.4148 O.3       1 <0>        -0.3547
      3 C2         -0.7467    1.9600   -1.2108 C.2       1 <0>         0.4493
      4 O2         -1.2027    1.1729   -2.0061 O.2       1 <0>        -0.4916
      5 C3         -0.0178    1.4608    0.0101 C.3       1 <0>         0.1639
      6 H1          1.0048    1.8381    0.0023 H         1 <0>         0.1350
      7 C4         -0.7339    1.9542    1.2689 C.3       1 <0>        -0.1074
      8 C5          0.0735    1.5535    2.5052 C.3       1 <0>        -0.0890
      9 S1         -0.7755    2.1385    3.9976 S.3       1 <0>        -0.2549
     10 C6          0.2956    1.5905    5.3552 C.3       1 <0>        -0.1209
     11 N1          0.0021   -0.0041    0.0020 N.am      1 <0>        -0.7068
     12 C7          0.9608   -0.6613   -0.6802 C.2       1 <0>         0.5646
     13 O3          1.8090   -0.0386   -1.2888 O.2       1 <0>        -0.5165
     14 C8          0.9809   -2.1396   -0.6883 C.ar      1 <0>        -0.0768
     15 C9          0.0118   -2.8576    0.0142 C.ar      1 <0>        -0.1055
     16 C10         0.0331   -4.2369   -0.0018 C.ar      1 <0>        -0.0274
     17 C11         1.0187   -4.9085   -0.7031 C.ar      1 <0>        -0.6542
     18 C12         1.9856   -4.2027   -1.3969 C.ar      1 <0>        -0.0223
     19 C13         1.9723   -2.8232   -1.3938 C.ar      1 <0>        -0.0775
     20 S2          1.0423   -6.6703   -0.7133 S.o2      1 <0>         2.6961
     21 O4         -0.2856   -7.0958   -0.4396 O.2       1 <0>        -0.9463
     22 O5          1.7404   -7.0604   -1.8879 O.2       1 <0>        -0.9497
     23 N2          1.9687   -7.1550    0.5709 N.pl3     1 <0>        -1.0857
     24 C14         1.5285   -6.8731    1.9395 C.3       1 <0>         0.0773
     25 C15         2.6090   -6.5889    2.9847 C.3       1 <0>        -0.1879
     26 C16         1.8473   -7.9156    3.0130 C.3       1 <0>        -0.1821
     27 H2         -1.6462    4.7759   -2.6549 H         1 <0>         0.1061
     28 H3         -1.0818    3.3098   -3.4917 H         1 <0>         0.0646
     29 H4         -2.6146    3.2840   -2.5872 H         1 <0>         0.0648
     30 H5         -0.8273    3.0396    1.2319 H         1 <0>         0.1099
     31 H6         -1.7260    1.5058    1.3219 H         1 <0>         0.0889
     32 H7          0.1669    0.4682    2.5421 H         1 <0>         0.0850
     33 H8          1.0656    2.0020    2.4522 H         1 <0>         0.0895
     34 H9          0.3843    0.5044    5.3322 H         1 <0>         0.0774
     35 H10         1.2830    2.0382    5.2423 H         1 <0>         0.0784
     36 H11        -0.1369    1.8997    6.3067 H         1 <0>         0.1049
     37 H12        -0.6748   -0.5010    0.4877 H         1 <0>         0.4093
     38 H13        -0.7555   -2.3345    0.5657 H         1 <0>         0.1371
     39 H14        -0.7188   -4.7937    0.5377 H         1 <0>         0.1490
     40 H15         2.7522   -4.7330   -1.9424 H         1 <0>         0.1506
     41 H16         2.7272   -2.2735   -1.9363 H         1 <0>         0.1491
     42 H17         2.8028   -7.6255    0.4170 H         1 <0>         0.4217
     43 H18         0.5870   -6.3310    2.0282 H         1 <0>         0.1366
     44 H19         3.6474   -6.6117    2.6542 H         1 <0>         0.1007
     45 H20         2.3786   -5.8596    3.7614 H         1 <0>         0.1043
     46 H21         1.1158   -8.0590    3.8082 H         1 <0>         0.1064
     47 H22         2.3843   -8.8113    2.7009 H         1 <0>         0.1017
@<TRIPOS>BOND
     1    1    2 1
     2    1   27 1
     3    1   28 1
     4    1   29 1
     5    2    3 1
     6    3    4 2
     7    3    5 1
     8    5    6 1
     9    5    7 1
    10    5   11 1
    11    7    8 1
    12    7   30 1
    13    7   31 1
    14    8    9 1
    15    8   32 1
    16    8   33 1
    17    9   10 1
    18   10   34 1
    19   10   35 1
    20   10   36 1
    21   11   12 am
    22   11   37 1
    23   12   13 2
    24   12   14 1
    25   14   19 ar
    26   14   15 ar
    27   15   16 ar
    28   15   38 1
    29   16   17 ar
    30   16   39 1
    31   17   18 ar
    32   17   20 1
    33   18   19 ar
    34   18   40 1
    35   19   41 1
    36   20   21 2
    37   20   22 2
    38   20   23 1
    39   23   24 1
    40   23   42 1
    41   24   26 1
    42   24   25 1
    43   24   43 1
    44   25   26 1
    45   25   44 1
    46   25   45 1
    47   26   46 1
    48   26   47 1
@<TRIPOS>MOLECULE
ZINC24172947
   47    48     0     0     0
SMALL
USER_CHARGES
methyl 4-[[2-[[5-(cyclopropyl-propanoyl-amino)-1,3,4-thiadiazol-2-yl]sulfanyl]acetyl]amino]butanoate
@<TRIPOS>ATOM
      1 C1         -1.8469   -0.8367    3.4267 C.3       1 <0>        -0.1441
      2 C2         -1.1731   -0.3585    2.1390 C.3       1 <0>        -0.1360
      3 C3         -1.5802    1.0650    1.8578 C.2       1 <0>         0.5106
      4 O1         -2.3350    1.6404    2.6131 O.2       1 <0>        -0.4950
      5 N1         -1.1055    1.6987    0.7672 N.am      1 <0>        -0.4944
      6 C4         -1.4817    3.0143    0.5073 C.2       1 <0>         0.2570
      7 N2         -1.0574    3.8517   -0.4248 N.2       1 <0>        -0.3027
      8 N3         -1.5079    5.0255   -0.5242 N.2       1 <0>        -0.2663
      9 C5         -2.4345    5.4924    0.2999 C.2       1 <0>        -0.0372
     10 S1         -2.6834    4.0524    1.3346 S.3       1 <0>         0.1254
     11 S2         -3.2071    7.0749    0.3561 S.3       1 <0>         0.1288
     12 C6         -2.4397    7.9868   -1.0114 C.3       1 <0>        -0.1618
     13 C7         -3.0191    9.3764   -1.0763 C.2       1 <0>         0.5369
     14 O2         -3.8664    9.7181   -0.2786 O.2       1 <0>        -0.5261
     15 N4         -2.5958   10.2396   -2.0209 N.am      1 <0>        -0.7337
     16 C8         -3.1591   11.5905   -2.0840 C.3       1 <0>         0.1216
     17 C9         -2.5118   12.3596   -3.2374 C.3       1 <0>        -0.1227
     18 C10        -3.1000   13.7705   -3.3033 C.3       1 <0>        -0.1137
     19 C11        -2.4625   14.5280   -4.4394 C.2       1 <0>         0.4608
     20 O3         -1.6237   13.9942   -5.1259 O.2       1 <0>        -0.5075
     21 O4         -2.8265   15.7957   -4.6886 O.3       1 <0>        -0.3599
     22 C12        -2.1707   16.4638   -5.7985 C.3       1 <0>         0.0314
     23 C13        -0.1938    1.0038   -0.1450 C.3       1 <0>        -0.0352
     24 C14         0.0292    1.6206   -1.5273 C.3       1 <0>        -0.1181
     25 C15         1.1352    1.6876   -0.4722 C.3       1 <0>        -0.1158
     26 H1         -1.5498   -1.8757    3.6320 H         1 <0>         0.0722
     27 H2         -2.9394   -0.7839    3.3102 H         1 <0>         0.0665
     28 H3         -1.5359   -0.1942    4.2637 H         1 <0>         0.0667
     29 H4         -0.0806   -0.4113    2.2555 H         1 <0>         0.1087
     30 H5         -1.4840   -1.0010    1.3020 H         1 <0>         0.1080
     31 H6         -1.3539    8.0496   -0.8466 H         1 <0>         0.1288
     32 H7         -2.6371    7.4626   -1.9581 H         1 <0>         0.1289
     33 H8         -1.8274    9.9298   -2.7445 H         1 <0>         0.4289
     34 H9         -4.2449   11.5277   -2.2488 H         1 <0>         0.0736
     35 H10        -2.9617   12.1147   -1.1373 H         1 <0>         0.0736
     36 H11        -1.4260   12.4223   -3.0726 H         1 <0>         0.0825
     37 H12        -2.7092   11.8355   -4.1841 H         1 <0>         0.0825
     38 H13        -4.1858   13.7077   -3.4681 H         1 <0>         0.1129
     39 H14        -2.9025   14.2947   -2.3566 H         1 <0>         0.1129
     40 H15        -2.5594   17.4887   -5.8909 H         1 <0>         0.1048
     41 H16        -2.3696   15.9109   -6.7284 H         1 <0>         0.0650
     42 H17        -1.0863   16.4979   -5.6169 H         1 <0>         0.0650
     43 H18        -0.5079    0.0249    0.2461 H         1 <0>         0.1542
     44 H19        -0.0645    0.8399   -2.2966 H         1 <0>         0.1129
     45 H20        -0.7232    2.4030   -1.7054 H         1 <0>         0.1317
     46 H21         1.2971    2.5254    0.2219 H         1 <0>         0.1026
     47 H22         1.9558    0.9624   -0.3693 H         1 <0>         0.1148
@<TRIPOS>BOND
     1    1    2 1
     2    1   26 1
     3    1   27 1
     4    1   28 1
     5    2    3 1
     6    2   29 1
     7    2   30 1
     8    3    4 2
     9    3    5 am
    10    5    6 1
    11    5   23 1
    12    6   10 1
    13    6    7 2
    14    7    8 1
    15    8    9 2
    16    9   10 1
    17    9   11 1
    18   11   12 1
    19   12   13 1
    20   12   31 1
    21   12   32 1
    22   13   14 2
    23   13   15 am
    24   15   16 1
    25   15   33 1
    26   16   17 1
    27   16   34 1
    28   16   35 1
    29   17   18 1
    30   17   36 1
    31   17   37 1
    32   18   19 1
    33   18   38 1
    34   18   39 1
    35   19   20 2
    36   19   21 1
    37   21   22 1
    38   22   40 1
    39   22   41 1
    40   22   42 1
    41   23   25 1
    42   23   24 1
    43   23   43 1
    44   24   25 1
    45   24   44 1
    46   24   45 1
    47   25   46 1
    48   25   47 1
@<TRIPOS>MOLECULE
ZINC39498840
   50    50     0     0     0
SMALL
USER_CHARGES

@<TRIPOS>ATOM
      1 C1         -0.0187    1.5258    0.0104 C.3       1 <0>        -0.1529
      2 C2          0.0021   -0.0041    0.0020 C.3       1 <0>         0.0493
      3 O1         -1.3386   -0.4987    0.0122 O.3       1 <0>        -0.2986
      4 C3         -1.4984   -1.8492    0.0064 C.ar      1 <0>         0.0980
      5 C4         -0.3893   -2.6797   -0.0028 C.ar      1 <0>        -0.1393
      6 C5         -0.5535   -4.0523   -0.0082 C.ar      1 <0>        -0.1010
      7 C6         -1.8231   -4.5996   -0.0047 C.ar      1 <0>        -0.0240
      8 C7         -2.9339   -3.7768    0.0040 C.ar      1 <0>        -0.6402
      9 C8         -2.7762   -2.4001    0.0157 C.ar      1 <0>         0.1795
     10 O2         -3.8679   -1.5893    0.0304 O.3       1 <0>        -0.3207
     11 C9         -4.4008   -1.1957   -1.2358 C.3       1 <0>         0.0696
     12 C10        -5.6164   -0.2923   -1.0189 C.3       1 <0>        -0.1452
     13 S1         -4.5501   -4.4785    0.0077 S.o2      1 <0>         2.4793
     14 O3         -5.3770   -3.4875   -0.5868 O.2       1 <0>        -0.9154
     15 O4         -4.3937   -5.7525   -0.6019 O.2       1 <0>        -0.9194
     16 C11        -4.9701   -4.6725    1.7618 C.3       1 <0>        -0.5628
     17 C12        -4.9455   -3.3045    2.4464 C.3       1 <0>        -0.1379
     18 C13        -6.3685   -5.2805    1.8871 C.3       1 <0>        -0.1448
     19 C14        -1.9964   -6.0966   -0.0111 C.3       1 <0>         0.1784
     20 H1         -2.8716   -6.3636    0.5813 H         1 <0>         0.1128
     21 C15        -2.1868   -6.5819   -1.4495 C.3       1 <0>        -0.1903
     22 C16        -2.4822   -8.0596   -1.4462 C.2       1 <0>         0.3566
     23 O5         -3.4765   -8.4779   -1.9891 O.2       1 <0>        -0.4500
     24 N1         -0.8063   -6.7285    0.5640 N.am      1 <0>        -0.7374
     25 C17        -0.8967   -7.9505    1.1251 C.2       1 <0>         0.4870
     26 O6         -1.9633   -8.5271    1.1540 O.2       1 <0>        -0.5403
     27 H2          1.0039    1.9031    0.0027 H         1 <0>         0.0813
     28 H3         -0.5459    1.8868   -0.8726 H         1 <0>         0.0681
     29 H4         -0.5289    1.8773    0.9072 H         1 <0>         0.0689
     30 H5          0.5123   -0.3556   -0.8948 H         1 <0>         0.0641
     31 H6          0.5293   -0.3651    0.8851 H         1 <0>         0.0648
     32 H7          0.6036   -2.2546   -0.0062 H         1 <0>         0.1444
     33 H8          0.3118   -4.6985   -0.0154 H         1 <0>         0.1383
     34 H9         -3.6403   -0.6529   -1.7972 H         1 <0>         0.0452
     35 H10        -4.7017   -2.0818   -1.7947 H         1 <0>         0.0820
     36 H11        -5.3156    0.5938   -0.4600 H         1 <0>         0.0590
     37 H12        -6.0229    0.0079   -1.9847 H         1 <0>         0.0741
     38 H13        -6.3769   -0.8351   -0.4575 H         1 <0>         0.0720
     39 H14        -4.2437   -5.3306    2.2386 H         1 <0>         0.1341
     40 H15        -5.1978   -3.4210    3.5004 H         1 <0>         0.0783
     41 H16        -3.9492   -2.8713    2.3571 H         1 <0>         0.0682
     42 H17        -5.6719   -2.6464    1.9695 H         1 <0>         0.0819
     43 H18        -6.3860   -6.2551    1.3994 H         1 <0>         0.0750
     44 H19        -6.6209   -5.3971    2.9411 H         1 <0>         0.0871
     45 H20        -7.0949   -4.6224    1.4102 H         1 <0>         0.0756
     46 H21        -3.0187   -6.0461   -1.9066 H         1 <0>         0.1214
     47 H22        -1.2769   -6.3945   -2.0196 H         1 <0>         0.0915
     48 H23        -1.8047   -8.7447   -0.9583 H         1 <0>         0.0879
     49 H24         0.0467   -6.2673    0.5409 H         1 <0>         0.4033
     50 H25        -0.0194   -8.4163    1.5490 H         1 <0>         0.1431
@<TRIPOS>BOND
     1    1    2 1
     2    1   27 1
     3    1   28 1
     4    1   29 1
     5    2    3 1
     6    2   30 1
     7    2   31 1
     8    3    4 1
     9    4    9 ar
    10    4    5 ar
    11    5    6 ar
    12    5   32 1
    13    6    7 ar
    14    6   33 1
    15    7    8 ar
    16    7   19 1
    17    8    9 ar
    18    8   13 1
    19    9   10 1
    20   10   11 1
    21   11   12 1
    22   11   34 1
    23   11   35 1
    24   12   36 1
    25   12   37 1
    26   12   38 1
    27   13   14 2
    28   13   15 2
    29   13   16 1
    30   16   17 1
    31   16   18 1
    32   16   39 1
    33   17   40 1
    34   17   41 1
    35   17   42 1
    36   18   43 1
    37   18   44 1
    38   18   45 1
    39   19   20 1
    40   19   21 1
    41   19   24 1
    42   21   22 1
    43   21   46 1
    44   21   47 1
    45   22   23 2
    46   22   48 1
    47   24   25 am
    48   24   49 1
    49   25   26 2
    50   25   50 1
@<TRIPOS>MOLECULE
ZINC17401954
   47    48     0     0     0
SMALL
USER_CHARGES

@<TRIPOS>ATOM
      1 C1         -0.0187    1.5258    0.0104 C.3       1 <0>        -0.1529
      2 C2          0.0021   -0.0041    0.0020 C.3       1 <0>         0.0575
      3 O1          0.6709   -0.4649   -1.1737 O.3       1 <0>        -0.3904
      4 C3          0.7457   -1.8880   -1.2798 C.3       1 <0>         0.0658
      5 C4          1.4779   -2.2655   -2.5691 C.3       1 <0>        -0.1321
      6 C5          1.5580   -3.7892   -2.6827 C.3       1 <0>         0.1208
      7 N1          2.2590   -4.1507   -3.9172 N.am      1 <0>        -0.7225
      8 C6          2.4488   -5.4480   -4.2292 C.2       1 <0>         0.5538
      9 O2          2.0383   -6.3182   -3.4863 O.2       1 <0>        -0.5232
     10 C7          3.1563   -5.8129   -5.4751 C.ar      1 <0>        -0.0774
     11 C8          3.6340   -4.8161   -6.3274 C.ar      1 <0>        -0.1084
     12 C9          4.2938   -5.1633   -7.4882 C.ar      1 <0>        -0.0228
     13 C10         4.4819   -6.4961   -7.8084 C.ar      1 <0>        -0.6587
     14 C11         4.0105   -7.4891   -6.9681 C.ar      1 <0>        -0.0276
     15 C12         3.3545   -7.1554   -5.8012 C.ar      1 <0>        -0.0794
     16 S1          5.3251   -6.9309   -9.2932 S.o2      1 <0>         2.6947
     17 O3          4.8934   -8.2404   -9.6369 O.2       1 <0>        -0.9460
     18 O4          5.1870   -5.8267  -10.1769 O.2       1 <0>        -0.9478
     19 N2          6.9359   -7.0447   -8.9262 N.pl3     1 <0>        -1.1142
     20 C13         7.4057   -8.0823   -8.0047 C.3       1 <0>         0.1987
     21 C14         8.9024   -8.2154   -8.1191 C.2       1 <0>        -0.0350
     22 C15         9.8102   -7.5376   -7.3937 C.2       1 <0>        -0.1822
     23 C16        11.0851   -7.9701   -7.8255 C.2       1 <0>        -0.2188
     24 C17        10.8802   -8.8863   -8.7888 C.2       1 <0>        -0.0245
     25 O5          9.5562   -9.0350   -8.9584 O.3       1 <0>        -0.1692
     26 H1          1.0039    1.9031    0.0027 H         1 <0>         0.0633
     27 H2         -0.5459    1.8868   -0.8726 H         1 <0>         0.0634
     28 H3         -0.5289    1.8773    0.9072 H         1 <0>         0.0726
     29 H4          0.5293   -0.3651    0.8851 H         1 <0>         0.0496
     30 H5         -1.0205   -0.3814    0.0098 H         1 <0>         0.0497
     31 H6          1.2883   -2.2882   -0.4233 H         1 <0>         0.0536
     32 H7         -0.2614   -2.3044   -1.2986 H         1 <0>         0.0537
     33 H8          0.9353   -1.8654   -3.4255 H         1 <0>         0.0803
     34 H9          2.4851   -1.8492   -2.5502 H         1 <0>         0.0801
     35 H10         2.1006   -4.1894   -1.8262 H         1 <0>         0.0749
     36 H11         0.5508   -4.2056   -2.7015 H         1 <0>         0.0750
     37 H12         2.5866   -3.4563   -4.5100 H         1 <0>         0.4032
     38 H13         3.4872   -3.7754   -6.0790 H         1 <0>         0.1377
     39 H14         4.6639   -4.3931   -8.1486 H         1 <0>         0.1495
     40 H15         4.1603   -8.5276   -7.2240 H         1 <0>         0.1511
     41 H16         2.9913   -7.9314   -5.1436 H         1 <0>         0.1495
     42 H17         7.5684   -6.4244   -9.3213 H         1 <0>         0.4245
     43 H18         7.1423   -7.8075   -6.9834 H         1 <0>         0.0990
     44 H19         6.9360   -9.0328   -8.2579 H         1 <0>         0.1013
     45 H20         9.6045   -6.8035   -6.6288 H         1 <0>         0.1516
     46 H21        12.0402   -7.6299   -7.4535 H         1 <0>         0.1518
     47 H22        11.6498   -9.4155   -9.3311 H         1 <0>         0.2065
@<TRIPOS>BOND
     1    1    2 1
     2    1   26 1
     3    1   27 1
     4    1   28 1
     5    2    3 1
     6    2   29 1
     7    2   30 1
     8    3    4 1
     9    4    5 1
    10    4   31 1
    11    4   32 1
    12    5    6 1
    13    5   33 1
    14    5   34 1
    15    6    7 1
    16    6   35 1
    17    6   36 1
    18    7    8 am
    19    7   37 1
    20    8    9 2
    21    8   10 1
    22   10   15 ar
    23   10   11 ar
    24   11   12 ar
    25   11   38 1
    26   12   13 ar
    27   12   39 1
    28   13   14 ar
    29   13   16 1
    30   14   15 ar
    31   14   40 1
    32   15   41 1
    33   16   17 2
    34   16   18 2
    35   16   19 1
    36   19   20 1
    37   19   42 1
    38   20   21 1
    39   20   43 1
    40   20   44 1
    41   21   25 1
    42   21   22 2
    43   22   23 1
    44   22   45 1
    45   23   24 2
    46   23   46 1
    47   24   25 1
    48   24   47 1
@<TRIPOS>MOLECULE
ZINC63642774
   49    50     0     0     0
SMALL
USER_CHARGES

@<TRIPOS>ATOM
      1 C1         -0.0187    1.5258    0.0104 C.3       1 <0>        -0.1511
      2 C2          0.0021   -0.0041    0.0020 C.3       1 <0>        -0.0424
      3 C3          0.7074   -0.4901   -1.2379 C.2       1 <0>         0.2977
      4 N1          1.9844   -0.7319   -1.3455 N.2       1 <0>        -0.5349
      5 C4          2.2701   -1.1486   -2.5842 C.2       1 <0>         0.2693
      6 N2          1.1720   -1.1770   -3.2833 N.2       1 <0>        -0.3235
      7 O1          0.1300   -0.7534   -2.4168 O.3       1 <0>        -0.0988
      8 C5          3.6399   -1.5235   -3.0884 C.3       1 <0>        -0.0347
      9 S1          3.9243   -3.2929   -2.8073 S.3       1 <0>        -0.1322
     10 C6          5.5924   -3.5785   -3.4604 C.3       1 <0>        -0.1340
     11 C7          5.9581   -5.0300   -3.2867 C.2       1 <0>         0.5327
     12 O2          5.1710   -5.7965   -2.7730 O.2       1 <0>        -0.5160
     13 N3          7.1599   -5.4765   -3.7023 N.am      1 <0>        -0.7172
     14 C8          7.5155   -6.8877   -3.5335 C.3       1 <0>         0.1788
     15 C9          8.9013   -7.1249   -4.0761 C.ar      1 <0>        -0.1448
     16 C10         9.0654   -7.6712   -5.3357 C.ar      1 <0>        -0.1142
     17 C11        10.3380   -7.8897   -5.8365 C.ar      1 <0>         0.0641
     18 C12        11.4524   -7.5590   -5.0711 C.ar      1 <0>         0.1514
     19 C13        11.2863   -7.0119   -3.8097 C.ar      1 <0>        -0.2651
     20 C14        10.0100   -6.7898   -3.3139 C.ar      1 <0>         0.1525
     21 O3          9.8461   -6.2474   -2.0778 O.3       1 <0>        -0.3060
     22 C15        11.0318   -5.9264   -1.3477 C.3       1 <0>         0.0249
     23 O4         12.7027   -7.7732   -5.5611 O.3       1 <0>        -0.2997
     24 C16        13.7999   -7.4099   -4.7207 C.3       1 <0>         0.0239
     25 O5         10.4987   -8.4277   -7.0759 O.3       1 <0>        -0.3054
     26 C17         9.3110   -8.7432   -7.8052 C.3       1 <0>         0.0250
     27 H1          1.0039    1.9031    0.0027 H         1 <0>         0.0665
     28 H2         -0.5459    1.8868   -0.8726 H         1 <0>         0.0638
     29 H3         -0.5289    1.8773    0.9072 H         1 <0>         0.0820
     30 H4          0.5293   -0.3651    0.8851 H         1 <0>         0.1162
     31 H5         -1.0205   -0.3814    0.0098 H         1 <0>         0.1069
     32 H6          3.7053   -1.3101   -4.1553 H         1 <0>         0.1141
     33 H7          4.3942   -0.9450   -2.5552 H         1 <0>         0.1206
     34 H8          5.6168   -3.3218   -4.5194 H         1 <0>         0.1150
     35 H9          6.3057   -2.9568   -2.9193 H         1 <0>         0.1162
     36 H10         7.7895   -4.8636   -4.1133 H         1 <0>         0.4020
     37 H11         7.4911   -7.1443   -2.4745 H         1 <0>         0.0833
     38 H12         6.8021   -7.5094   -4.0746 H         1 <0>         0.0774
     39 H13         8.2005   -7.9281   -5.9293 H         1 <0>         0.1457
     40 H14        12.1497   -6.7549   -3.2141 H         1 <0>         0.1445
     41 H15        10.7597   -5.5024   -0.3811 H         1 <0>         0.1038
     42 H16        11.6206   -6.8309   -1.1950 H         1 <0>         0.0563
     43 H17        11.6196   -5.2009   -1.9102 H         1 <0>         0.0557
     44 H18        13.7507   -6.3437   -4.4995 H         1 <0>         0.0559
     45 H19        13.7486   -7.9766   -3.7909 H         1 <0>         0.0564
     46 H20        14.7373   -7.6323   -5.2305 H         1 <0>         0.1049
     47 H21         9.5804   -9.1639   -8.7740 H         1 <0>         0.1022
     48 H22         8.7226   -9.4696   -7.2447 H         1 <0>         0.0558
     49 H23         8.7240   -7.8368   -7.9533 H         1 <0>         0.0548
@<TRIPOS>BOND
     1    1    2 1
     2    1   27 1
     3    1   28 1
     4    1   29 1
     5    2    3 1
     6    2   30 1
     7    2   31 1
     8    3    7 1
     9    3    4 2
    10    4    5 1
    11    5    6 2
    12    5    8 1
    13    6    7 1
    14    8    9 1
    15    8   32 1
    16    8   33 1
    17    9   10 1
    18   10   11 1
    19   10   34 1
    20   10   35 1
    21   11   12 2
    22   11   13 am
    23   13   14 1
    24   13   36 1
    25   14   15 1
    26   14   37 1
    27   14   38 1
    28   15   20 ar
    29   15   16 ar
    30   16   17 ar
    31   16   39 1
    32   17   18 ar
    33   17   25 1
    34   18   19 ar
    35   18   23 1
    36   19   20 ar
    37   19   40 1
    38   20   21 1
    39   21   22 1
    40   22   41 1
    41   22   42 1
    42   22   43 1
    43   23   24 1
    44   24   44 1
    45   24   45 1
    46   24   46 1
    47   25   26 1
    48   26   47 1
    49   26   48 1
    50   26   49 1
@<TRIPOS>MOLECULE
ZINC01572179
   33    32     0     0     0
SMALL
USER_CHARGES
2-[5-(carboxymethylsulfonyl)pentylsulfonyl]acetic acid
@<TRIPOS>ATOM
      1 C1         -6.6592    1.8358    0.0436 C.3       1 <0>        -0.1026
      2 C2         -5.4204    0.9380    0.0329 C.3       1 <0>        -0.1157
      3 C3         -4.1610    1.8068    0.0316 C.3       1 <0>        -0.6300
      4 S1         -2.6921    0.7423    0.0189 S.o2      1 <0>         2.4430
      5 O1         -2.6642    0.0296   -1.2102 O.2       1 <0>        -0.9365
      6 O2         -2.6526    0.0163    1.2397 O.2       1 <0>        -0.9365
      7 C4         -1.3295    1.9397    0.0189 C.3       1 <0>        -0.6489
      8 C5         -0.0143    1.2041    0.0087 C.2       1 <0>         0.4888
      9 O3          0.0021   -0.0041    0.0020 O.co2     1 <0>        -0.6179
     10 C6         -7.9187    0.9670    0.0449 C.3       1 <0>        -0.1157
     11 C7         -9.1575    1.8648    0.0556 C.3       1 <0>        -0.6300
     12 S2        -10.6507    0.8348    0.0571 S.o2      1 <0>         2.4429
     13 O4        -10.7070    0.1231   -1.1715 O.2       1 <0>        -0.9365
     14 O5        -10.6954    0.1097    1.2784 O.2       1 <0>        -0.9365
     15 C8        -11.9851    2.0635    0.0701 C.3       1 <0>        -0.6489
     16 C9        -13.3171    1.3586    0.0726 C.2       1 <0>         0.4888
     17 O6        -13.3616    0.1512    0.0662 O.co2     1 <0>        -0.6179
     18 H1         -6.6477    2.4602    0.9370 H         1 <0>         0.0690
     19 H2         -6.6561    2.4699   -0.8430 H         1 <0>         0.0690
     20 H3         -5.4319    0.3136   -0.8605 H         1 <0>         0.0828
     21 H4         -5.4235    0.3039    0.9194 H         1 <0>         0.0828
     22 H5         -4.1494    2.4312    0.9249 H         1 <0>         0.1274
     23 H6         -4.1579    2.4409   -0.8550 H         1 <0>         0.1275
     24 H7         -1.3915    2.5607    0.9126 H         1 <0>         0.1311
     25 H8         -1.4000    2.5704   -0.8673 H         1 <0>         0.1312
     26 H9         -7.9302    0.3426   -0.8485 H         1 <0>         0.0828
     27 H10        -7.9218    0.3329    0.9314 H         1 <0>         0.0828
     28 H11        -9.1460    2.4892    0.9490 H         1 <0>         0.1275
     29 H12        -9.1544    2.4989   -0.8310 H         1 <0>         0.1275
     30 H13       -11.9001    2.6828    0.9631 H         1 <0>         0.1311
     31 H14       -11.9086    2.6925   -0.8168 H         1 <0>         0.1311
     32 O7          1.1389    1.8910    0.0013 O.co2     1 <0>        -0.7467
     33 O8        -14.4540    2.0721    0.0819 O.co2     1 <0>        -0.7467
@<TRIPOS>BOND
     1    1    2 1
     2    1   10 1
     3    1   18 1
     4    1   19 1
     5    2    3 1
     6    2   20 1
     7    2   21 1
     8    3    4 1
     9    3   22 1
    10    3   23 1
    11    4    5 2
    12    4    6 2
    13    4    7 1
    14    7    8 1
    15    7   24 1
    16    7   25 1
    17    8    9 2
    18    8   32 1
    19   10   11 1
    20   10   26 1
    21   10   27 1
    22   11   12 1
    23   11   28 1
    24   11   29 1
    25   12   13 2
    26   12   14 2
    27   12   15 1
    28   15   16 1
    29   15   30 1
    30   15   31 1
    31   16   17 2
    32   16   33 1
@<TRIPOS>MOLECULE
ZINC13364054
   42    44     0     0     0
SMALL
USER_CHARGES
5-[[2-[[5-(p-tolyl)-1,3,4-oxadiazol-2-yl]sulfanyl]acetyl]amino]benzene-1,3-dicarboxylic acid
@<TRIPOS>ATOM
      1 C1         -5.3994   17.0807   -0.9825 C.3       1 <0>        -0.1183
      2 C2         -4.7679   15.7175   -0.8639 C.ar      1 <0>        -0.0659
      3 C3         -3.3905   15.5992   -0.8072 C.ar      1 <0>        -0.1223
      4 C4         -2.8060   14.3543   -0.6991 C.ar      1 <0>        -0.0639
      5 C5         -3.6075   13.2124   -0.6470 C.ar      1 <0>        -0.0235
      6 C6         -4.9965   13.3387   -0.7101 C.ar      1 <0>        -0.0797
      7 C7         -5.5682   14.5899   -0.8128 C.ar      1 <0>        -0.1215
      8 C8         -2.9884   11.8759   -0.5318 C.2       1 <0>         0.1970
      9 N1         -1.7048   11.6181   -0.4695 N.2       1 <0>        -0.2619
     10 N2         -1.5278   10.3473   -0.3749 N.2       1 <0>        -0.2926
     11 C9         -2.6935    9.7427   -0.3731 C.2       1 <0>         0.1283
     12 O1         -3.6412   10.6936   -0.4780 O.3       1 <0>        -0.2003
     13 S1         -2.9671    8.0057   -0.2616 S.3       1 <0>         0.1673
     14 C10        -1.2561    7.4238   -0.1611 C.3       1 <0>        -0.1603
     15 C11        -1.2420    5.9206   -0.0558 C.2       1 <0>         0.5215
     16 O2         -2.2861    5.3033   -0.0494 O.2       1 <0>        -0.4995
     17 N3         -0.0693    5.2620    0.0311 N.am      1 <0>        -0.6489
     18 C12        -0.0499    3.8623    0.0175 C.ar      1 <0>         0.0822
     19 C13        -0.9871    3.1646   -0.7299 C.ar      1 <0>        -0.0765
     20 C14        -0.9707    1.7684   -0.7458 C.ar      1 <0>        -0.1254
     21 C15        -0.0112    1.0760   -0.0095 C.ar      1 <0>        -0.0325
     22 C16         0.9253    1.7803    0.7450 C.ar      1 <0>        -0.1252
     23 C17         0.9062    3.1765    0.7520 C.ar      1 <0>        -0.1000
     24 C18         1.9407    1.0505    1.5322 C.2       1 <0>         0.4982
     25 O3          2.7566    1.6650    2.1896 O.co2     1 <0>        -0.6468
     26 C19        -1.9698    1.0260   -1.5420 C.2       1 <0>         0.4973
     27 O4         -2.8058    1.6302   -2.1835 O.co2     1 <0>        -0.6413
     28 H1         -5.5156   17.3369   -2.0355 H         1 <0>         0.0746
     29 H2         -6.3771   17.0713   -0.5007 H         1 <0>         0.0692
     30 H3         -4.7622   17.8198   -0.4969 H         1 <0>         0.0693
     31 H4         -2.7717   16.4833   -0.8479 H         1 <0>         0.1330
     32 H5         -1.7307   14.2633   -0.6552 H         1 <0>         0.1404
     33 H6         -5.6221   12.4590   -0.6749 H         1 <0>         0.1339
     34 H7         -6.6427   14.6893   -0.8572 H         1 <0>         0.1319
     35 H8         -0.7770    7.8541    0.7183 H         1 <0>         0.1316
     36 H9         -0.7149    7.7304   -1.0562 H         1 <0>         0.1326
     37 H10         0.7612    5.7580    0.1031 H         1 <0>         0.4069
     38 H11        -1.7306    3.7018   -1.3000 H         1 <0>         0.1331
     39 H12         0.0038   -0.0039   -0.0200 H         1 <0>         0.1416
     40 H13         1.6345    3.7230    1.3328 H         1 <0>         0.1232
     41 O5          1.9616   -0.2964    1.5209 O.co2     1 <0>        -0.7520
     42 O6         -1.9536   -0.3209   -1.5565 O.co2     1 <0>        -0.7550
@<TRIPOS>BOND
     1    1    2 1
     2    1   28 1
     3    1   29 1
     4    1   30 1
     5    2    7 ar
     6    2    3 ar
     7    3    4 ar
     8    3   31 1
     9    4    5 ar
    10    4   32 1
    11    5    6 ar
    12    5    8 1
    13    6    7 ar
    14    6   33 1
    15    7   34 1
    16    8   12 1
    17    8    9 2
    18    9   10 1
    19   10   11 2
    20   11   12 1
    21   11   13 1
    22   13   14 1
    23   14   15 1
    24   14   35 1
    25   14   36 1
    26   15   16 2
    27   15   17 am
    28   17   18 1
    29   17   37 1
    30   18   23 ar
    31   18   19 ar
    32   19   20 ar
    33   19   38 1
    34   20   21 ar
    35   20   26 1
    36   21   22 ar
    37   21   39 1
    38   22   23 ar
    39   22   24 1
    40   23   40 1
    41   24   25 2
    42   24   41 1
    43   26   27 2
    44   26   42 1
@<TRIPOS>MOLECULE
ZINC13426456
   44    45     0     0     0
SMALL
USER_CHARGES
5-[[4-(isopropylsulfamoyl)benzoyl]amino]benzene-1,3-dicarboxylic acid
@<TRIPOS>ATOM
      1 C1         -0.3873    3.4676   -2.6313 C.3       1 <0>        -0.1731
      2 C2         -1.3352    2.9239   -1.5605 C.3       1 <0>         0.1440
      3 C3         -2.7647    2.9074   -2.1057 C.3       1 <0>        -0.1609
      4 N1         -0.9345    1.5618   -1.1996 N.pl3     1 <0>        -1.1122
      5 S1          0.0512    1.3073    0.1066 S.o2      1 <0>         2.6960
      6 O1          0.2333   -0.0981    0.2102 O.2       1 <0>        -0.9599
      7 O2          1.1414    2.2091   -0.0256 O.2       1 <0>        -0.9543
      8 C4         -0.8441    1.8062    1.5398 C.ar      1 <0>        -0.6677
      9 C5         -0.7520    3.1113    1.9898 C.ar      1 <0>        -0.0304
     10 C6         -1.4542    3.5097    3.1085 C.ar      1 <0>        -0.1096
     11 C7         -2.2504    2.5899    3.7930 C.ar      1 <0>        -0.0572
     12 C8         -2.3347    1.2734    3.3368 C.ar      1 <0>        -0.0818
     13 C9         -1.6315    0.8895    2.2137 C.ar      1 <0>        -0.0252
     14 C10        -3.0007    3.0081    4.9959 C.2       1 <0>         0.5345
     15 O3         -3.6931    2.2049    5.5903 O.2       1 <0>        -0.4974
     16 N2         -2.9172    4.2800    5.4339 N.am      1 <0>        -0.6509
     17 C11        -3.7113    4.7048    6.5047 C.ar      1 <0>         0.0818
     18 C12        -4.9832    4.1776    6.6747 C.ar      1 <0>        -0.0761
     19 C13        -5.7763    4.5950    7.7456 C.ar      1 <0>        -0.1254
     20 C14        -5.2930    5.5508    8.6375 C.ar      1 <0>        -0.0326
     21 C15        -4.0170    6.0825    8.4602 C.ar      1 <0>        -0.1248
     22 C16        -3.2272    5.6563    7.3905 C.ar      1 <0>        -0.1011
     23 C17        -3.5002    7.0956    9.4035 C.2       1 <0>         0.4983
     24 O4         -2.3878    7.5582    9.2487 O.co2     1 <0>        -0.6467
     25 C18        -7.1285    4.0285    7.9294 C.2       1 <0>         0.4975
     26 O5         -7.5489    3.1956    7.1517 O.co2     1 <0>        -0.6417
     27 H1          0.6311    3.4793   -2.2429 H         1 <0>         0.0710
     28 H2         -0.4321    2.8297   -3.5141 H         1 <0>         0.0599
     29 H3         -0.6854    4.4810   -2.8999 H         1 <0>         0.0682
     30 H4         -1.2904    3.5618   -0.6778 H         1 <0>         0.0859
     31 H5         -3.4401    2.5201   -1.3428 H         1 <0>         0.0655
     32 H6         -3.0629    3.9208   -2.3743 H         1 <0>         0.0717
     33 H7         -2.8096    2.2695   -2.9884 H         1 <0>         0.0619
     34 H8         -1.2465    0.8089   -1.7257 H         1 <0>         0.4181
     35 H9         -0.1324    3.8209    1.4616 H         1 <0>         0.1456
     36 H10        -1.3847    4.5298    3.4563 H         1 <0>         0.1406
     37 H11        -2.9493    0.5570    3.8616 H         1 <0>         0.1505
     38 H12        -1.6961   -0.1287    1.8594 H         1 <0>         0.1459
     39 H13        -2.3066    4.9010    5.0067 H         1 <0>         0.4021
     40 H14        -5.3588    3.4405    5.9805 H         1 <0>         0.1322
     41 H15        -5.9061    5.8789    9.4638 H         1 <0>         0.1418
     42 H16        -2.2381    6.0676    7.2528 H         1 <0>         0.1226
     43 O6         -4.2628    7.5062   10.4353 O.co2     1 <0>        -0.7519
     44 O7         -7.8950    4.4358    8.9596 O.co2     1 <0>        -0.7547
@<TRIPOS>BOND
     1    1    2 1
     2    1   27 1
     3    1   28 1
     4    1   29 1
     5    2    3 1
     6    2    4 1
     7    2   30 1
     8    3   31 1
     9    3   32 1
    10    3   33 1
    11    4    5 1
    12    4   34 1
    13    5    6 2
    14    5    7 2
    15    5    8 1
    16    8   13 ar
    17    8    9 ar
    18    9   10 ar
    19    9   35 1
    20   10   11 ar
    21   10   36 1
    22   11   12 ar
    23   11   14 1
    24   12   13 ar
    25   12   37 1
    26   13   38 1
    27   14   15 2
    28   14   16 am
    29   16   17 1
    30   16   39 1
    31   17   22 ar
    32   17   18 ar
    33   18   19 ar
    34   18   40 1
    35   19   20 ar
    36   19   25 1
    37   20   21 ar
    38   20   41 1
    39   21   22 ar
    40   21   23 1
    41   22   42 1
    42   23   24 2
    43   23   43 1
    44   25   26 2
    45   25   44 1
@<TRIPOS>MOLECULE
ZINC18182744
   45    46     0     0     0
SMALL
USER_CHARGES
6-[(2S)-3-acetyl-4-hydroxy-2-(3-nitrophenyl)-5-oxo-2H-pyrrol-1-yl]hexanoic acid
@<TRIPOS>ATOM
      1 C1         -0.5507    5.0602    8.9784 C.3       1 <0>        -0.2034
      2 C2         -1.4464    3.8509    9.0576 C.2       1 <0>         0.4175
      3 O1         -2.2610    3.7566    9.9524 O.2       1 <0>        -0.5150
      4 C3         -1.3377    2.8252    8.0888 C.2       1 <0>        -0.4938
      5 C4         -2.0704    1.6857    8.0314 C.2       1 <0>         0.2905
      6 C5         -1.6368    0.8894    6.8622 C.2       1 <0>         0.5054
      7 O2         -2.1018   -0.1854    6.5393 O.2       1 <0>        -0.5264
      8 N1         -0.6507    1.5314    6.2100 N.am      1 <0>        -0.6095
      9 C6         -0.3786    2.7854    6.9221 C.3       1 <0>         0.2541
     10 H1          0.6724    2.8125    7.2457 H         1 <0>         0.0779
     11 C7         -0.6248    3.9615    6.0126 C.ar      1 <0>        -0.0724
     12 C8         -1.7067    3.9551    5.1519 C.ar      1 <0>        -0.0350
     13 C9         -1.9327    5.0340    4.3180 C.ar      1 <0>        -0.1166
     14 C10        -1.0766    6.1193    4.3443 C.ar      1 <0>        -0.0602
     15 C11         0.0050    6.1256    5.2048 C.ar      1 <0>        -0.0504
     16 C12         0.2278    5.0489    6.0430 C.ar      1 <0>        -0.0533
     17 N2          0.9218    7.2873    5.2326 N.pl3     1 <0>         0.0373
     18 O3          0.7231    8.2377    4.4971 O.2       1 <0>        -0.1739
     19 O4          1.8750    7.2929    5.9909 O.3       1 <0>        -0.1705
     20 C13         0.0350    1.0590    5.0047 C.3       1 <0>         0.1325
     21 C14        -0.7050    1.5658    3.7651 C.3       1 <0>        -0.1448
     22 C15         0.0111    1.0724    2.5063 C.3       1 <0>        -0.1152
     23 C16        -0.7288    1.5792    1.2668 C.3       1 <0>        -0.0966
     24 C17        -0.0127    1.0858    0.0080 C.3       1 <0>        -0.1571
     25 C18        -0.7416    1.5850   -1.2129 C.2       1 <0>         0.4584
     26 O5         -1.7322    2.2656   -1.0889 O.co2     1 <0>        -0.6411
     27 O6         -0.2903    1.2736   -2.4381 O.co2     1 <0>        -0.7843
     28 O7         -3.0419    1.3337    8.9028 O.3       1 <0>        -0.5995
     29 H2          0.1151    4.9670    8.1077 H         1 <0>         0.0695
     30 H3          0.0526    5.1303    9.8955 H         1 <0>         0.0723
     31 H4         -1.1660    5.9660    8.8742 H         1 <0>         0.0674
     32 H5         -2.3754    3.1073    5.1313 H         1 <0>         0.1390
     33 H6         -2.7779    5.0290    3.6456 H         1 <0>         0.1470
     34 H7         -1.2528    6.9620    3.6922 H         1 <0>         0.1486
     35 H8          1.0705    5.0557    6.7185 H         1 <0>         0.1539
     36 H9          1.0670    1.4398    4.9969 H         1 <0>         0.0753
     37 H10         0.0500   -0.0409    4.9986 H         1 <0>         0.0813
     38 H11        -1.7370    1.1850    3.7729 H         1 <0>         0.0675
     39 H12        -0.7200    2.6657    3.7711 H         1 <0>         0.0686
     40 H13         1.0431    1.4531    2.4985 H         1 <0>         0.0564
     41 H14         0.0260   -0.0275    2.5002 H         1 <0>         0.0590
     42 H15        -1.7608    1.1985    1.2746 H         1 <0>         0.0597
     43 H16        -0.7437    2.6791    1.2728 H         1 <0>         0.0579
     44 H17         1.0193    1.4666    0.0002 H         1 <0>         0.0605
     45 H18         0.0023   -0.0141    0.0019 H         1 <0>         0.0614
@<TRIPOS>BOND
     1    1    2 1
     2    1   29 1
     3    1   30 1
     4    1   31 1
     5    2    3 2
     6    2    4 1
     7    4    9 1
     8    4    5 2
     9    5    6 1
    10    5   28 1
    11    6    7 2
    12    6    8 am
    13    8    9 1
    14    8   20 1
    15    9   10 1
    16    9   11 1
    17   11   16 ar
    18   11   12 ar
    19   12   13 ar
    20   12   32 1
    21   13   14 ar
    22   13   33 1
    23   14   15 ar
    24   14   34 1
    25   15   16 ar
    26   15   17 1
    27   16   35 1
    28   17   18 2
    29   17   19 1
    30   20   21 1
    31   20   36 1
    32   20   37 1
    33   21   22 1
    34   21   38 1
    35   21   39 1
    36   22   23 1
    37   22   40 1
    38   22   41 1
    39   23   24 1
    40   23   42 1
    41   23   43 1
    42   24   25 1
    43   24   44 1
    44   24   45 1
    45   25   26 2
    46   25   27 1
@<TRIPOS>MOLECULE
ZINC38230120
   42    43     0     0     0
SMALL
USER_CHARGES

@<TRIPOS>ATOM
      1 C1         -0.0173    1.4248    0.0099 C.3       1 <0>         0.0333
      2 O1          0.0021   -0.0041    0.0020 O.3       1 <0>        -0.3181
      3 C2         -1.2019   -0.6383    0.0101 C.ar      1 <0>        -0.0272
      4 C3         -2.3668    0.0988    0.0195 C.ar      1 <0>        -0.0662
      5 C4         -3.6058   -0.5534    0.0278 C.ar      1 <0>        -0.2109
      6 C5         -3.6539   -1.9576    0.0265 C.ar      1 <0>         0.3460
      7 C6         -2.4747   -2.6873    0.0171 C.ar      1 <0>        -0.3276
      8 C7         -1.2535   -2.0333    0.0031 C.ar      1 <0>         0.1906
      9 O2         -0.1018   -2.7523   -0.0122 O.3       1 <0>        -0.3120
     10 C8         -0.2257   -4.1759   -0.0186 C.3       1 <0>         0.0220
     11 N1         -4.8799   -2.6135    0.0352 N.2       1 <0>        -1.0276
     12 S1         -4.9335   -4.2686    0.0337 S.o2      1 <0>         2.6039
     13 O3         -4.4057   -4.6909   -1.2162 O.2       1 <0>        -1.0267
     14 O4         -4.3865   -4.6938    1.2744 O.2       1 <0>        -1.0366
     15 C9         -6.6327   -4.7348    0.0463 C.ar      1 <0>        -0.6311
     16 C10        -7.2907   -4.9134    1.2507 C.ar      1 <0>        -0.0315
     17 C11        -8.6248   -5.2794    1.2703 C.ar      1 <0>        -0.1671
     18 C12        -9.3087   -5.4695    0.0875 C.ar      1 <0>        -0.0471
     19 C13        -8.6511   -5.2911   -1.1320 C.ar      1 <0>        -0.1633
     20 C14        -7.3052   -4.9154   -1.1440 C.ar      1 <0>         0.0160
     21 C15        -9.3758   -5.4925   -2.4013 C.2       1 <0>         0.5261
     22 O5        -10.5549   -5.8164   -2.3875 O.co2     1 <0>        -0.6965
     23 O6         -8.7972   -5.3355   -3.4672 O.co2     1 <0>        -0.6838
     24 C16        -4.8513    0.2279    0.0384 C.2       1 <0>         0.5013
     25 O7         -5.9256   -0.3409    0.0456 O.2       1 <0>        -0.4640
     26 O8         -4.8019    1.5751    0.0400 O.3       1 <0>        -0.3765
     27 C17        -6.0505    2.2700    0.0504 C.3       1 <0>         0.0411
     28 H1          1.0053    1.8021    0.0021 H         1 <0>         0.0840
     29 H2         -0.5445    1.7859   -0.8732 H         1 <0>         0.0460
     30 H3         -0.5275    1.7763    0.9067 H         1 <0>         0.0455
     31 H4         -2.3237    1.1779    0.0208 H         1 <0>         0.1323
     32 H5         -2.5084   -3.7668    0.0164 H         1 <0>         0.1225
     33 H6         -0.7780   -4.4886   -0.9049 H         1 <0>         0.0583
     34 H7          0.7665   -4.6270   -0.0309 H         1 <0>         0.0927
     35 H8         -0.7603   -4.4981    0.8750 H         1 <0>         0.0567
     36 H9         -6.7600   -4.7666    2.1799 H         1 <0>         0.1257
     37 H10        -9.1319   -5.4170    2.2139 H         1 <0>         0.1171
     38 H11       -10.3499   -5.7559    0.1043 H         1 <0>         0.1266
     39 H12        -6.7918   -4.7711   -2.0831 H         1 <0>         0.1389
     40 H13        -6.6245    1.9991   -0.8357 H         1 <0>         0.0522
     41 H14        -6.6112    1.9964    0.9442 H         1 <0>         0.0504
     42 H15        -5.8682    3.3447    0.0507 H         1 <0>         0.0847
@<TRIPOS>BOND
     1    1    2 1
     2    1   28 1
     3    1   29 1
     4    1   30 1
     5    2    3 1
     6    3    8 ar
     7    3    4 ar
     8    4    5 ar
     9    4   31 1
    10    5    6 ar
    11    5   24 1
    12    6    7 ar
    13    6   11 1
    14    7    8 ar
    15    7   32 1
    16    8    9 1
    17    9   10 1
    18   10   33 1
    19   10   34 1
    20   10   35 1
    21   11   12 1
    22   12   13 2
    23   12   14 2
    24   12   15 1
    25   15   20 ar
    26   15   16 ar
    27   16   17 ar
    28   16   36 1
    29   17   18 ar
    30   17   37 1
    31   18   19 ar
    32   18   38 1
    33   19   20 ar
    34   19   21 1
    35   20   39 1
    36   21   22 2
    37   21   23 1
    38   24   25 2
    39   24   26 1
    40   26   27 1
    41   27   40 1
    42   27   41 1
    43   27   42 1
@<TRIPOS>MOLECULE
ZINC13169164
   38    39     0     0     0
SMALL
USER_CHARGES
5-[(2-methoxy-4-methylsulfanyl-benzoyl)amino]benzene-1,3-dicarboxylic acid
@<TRIPOS>ATOM
      1 C1          8.5907    2.9328    0.3807 C.3       1 <0>         0.0202
      2 O1          7.3435    3.6230    0.2799 O.3       1 <0>        -0.2687
      3 C2          7.3882    4.9789    0.2802 C.ar      1 <0>         0.2049
      4 C3          8.6031    5.6345    0.3700 C.ar      1 <0>        -0.2022
      5 C4          8.6415    7.0241    0.3756 C.ar      1 <0>        -0.0275
      6 C5          7.4599    7.7595    0.2858 C.ar      1 <0>        -0.1804
      7 C6          6.2572    7.1225    0.1911 C.ar      1 <0>        -0.0278
      8 C7          6.2019    5.7241    0.1841 C.ar      1 <0>        -0.1612
      9 C8          4.9046    5.0370    0.0825 C.2       1 <0>         0.5444
     10 O2          4.8590    3.8214    0.0766 O.2       1 <0>        -0.4886
     11 N1          3.7670    5.7545   -0.0041 N.am      1 <0>        -0.6611
     12 C9          2.5276    5.1053    0.0108 C.ar      1 <0>         0.0898
     13 C10         1.4678    5.6204   -0.7212 C.ar      1 <0>        -0.1047
     14 C11         0.2296    4.9749   -0.7091 C.ar      1 <0>        -0.1265
     15 C12         0.0592    3.8121    0.0400 C.ar      1 <0>        -0.0362
     16 C13         1.1260    3.2976    0.7747 C.ar      1 <0>        -0.1261
     17 C14         2.3597    3.9516    0.7625 C.ar      1 <0>        -0.0763
     18 C15         0.9500    2.0651    1.5704 C.2       1 <0>         0.4978
     19 O3          1.8802    1.6173    2.2104 O.co2     1 <0>        -0.6415
     20 C16        -0.8986    5.5243   -1.4892 C.2       1 <0>         0.4990
     21 O4         -0.7492    6.5378   -2.1418 O.co2     1 <0>        -0.6484
     22 S1         10.1883    7.8592    0.4974 S.3       1 <0>        -0.1171
     23 C17         9.7415    9.6171    0.4667 C.3       1 <0>        -0.1442
     24 H1          8.4128    1.8575    0.3690 H         1 <0>         0.1051
     25 H2          9.2259    3.2051   -0.4622 H         1 <0>         0.0541
     26 H3          9.0847    3.2093    1.3121 H         1 <0>         0.0551
     27 H4          9.5197    5.0677    0.4404 H         1 <0>         0.1389
     28 H5          7.4972    8.8388    0.2914 H         1 <0>         0.1290
     29 H6          5.3461    7.6983    0.1218 H         1 <0>         0.1389
     30 H7          3.8074    6.7209   -0.0767 H         1 <0>         0.3981
     31 H8          1.6006    6.5215   -1.3015 H         1 <0>         0.1208
     32 H9         -0.8975    3.3110    0.0515 H         1 <0>         0.1400
     33 H10         3.1855    3.5559    1.3351 H         1 <0>         0.1327
     34 H11        10.6449   10.2229    0.5381 H         1 <0>         0.1077
     35 H12         9.2244    9.8444   -0.4655 H         1 <0>         0.0866
     36 H13         9.0869    9.8403    1.3092 H         1 <0>         0.0867
     37 O5         -0.2421    1.4379    1.5860 O.co2     1 <0>        -0.7573
     38 O6         -2.0928    4.9012   -1.4765 O.co2     1 <0>        -0.7537
@<TRIPOS>BOND
     1    1    2 1
     2    1   24 1
     3    1   25 1
     4    1   26 1
     5    2    3 1
     6    3    8 ar
     7    3    4 ar
     8    4    5 ar
     9    4   27 1
    10    5    6 ar
    11    5   22 1
    12    6    7 ar
    13    6   28 1
    14    7    8 ar
    15    7   29 1
    16    8    9 1
    17    9   10 2
    18    9   11 am
    19   11   12 1
    20   11   30 1
    21   12   17 ar
    22   12   13 ar
    23   13   14 ar
    24   13   31 1
    25   14   15 ar
    26   14   20 1
    27   15   16 ar
    28   15   32 1
    29   16   17 ar
    30   16   18 1
    31   17   33 1
    32   18   19 2
    33   18   37 1
    34   20   21 2
    35   20   38 1
    36   22   23 1
    37   23   34 1
    38   23   35 1
    39   23   36 1
@<TRIPOS>MOLECULE
ZINC13391833
   37    38     0     0     0
SMALL
USER_CHARGES
2-[[(2R)-2-(4-fluorophenoxy)propanoyl]amino]terephthalic acid
@<TRIPOS>ATOM
      1 C1         -6.3956   -0.6685   -1.6296 C.3       1 <0>        -0.1695
      2 C2         -5.5939   -1.0445   -0.3818 C.3       1 <0>         0.0663
      3 H1         -6.2248   -0.9391    0.5008 H         1 <0>         0.1042
      4 C3         -4.4004   -0.1328   -0.2580 C.2       1 <0>         0.4975
      5 O1         -3.2793   -0.5851   -0.3537 O.2       1 <0>        -0.5025
      6 N1         -4.5790    1.1854   -0.0410 N.am      1 <0>        -0.6345
      7 C4         -3.4843    2.0468   -0.0470 C.ar      1 <0>         0.1522
      8 C5         -2.3408    1.7138   -0.7589 C.ar      1 <0>        -0.1118
      9 C6         -1.2485    2.5781   -0.7627 C.ar      1 <0>        -0.1012
     10 C7         -1.3008    3.7772   -0.0466 C.ar      1 <0>        -0.1118
     11 C8         -2.4347    4.1145    0.6568 C.ar      1 <0>        -0.0784
     12 C9         -3.5350    3.2535    0.6661 C.ar      1 <0>        -0.1552
     13 C10        -4.7488    3.6133    1.4249 C.2       1 <0>         0.5055
     14 O2         -5.6668    2.8225    1.5130 O.co2     1 <0>        -0.6464
     15 C11        -0.0287    2.2234   -1.5213 C.2       1 <0>         0.4964
     16 O3          0.0197    1.1794   -2.1398 O.co2     1 <0>        -0.6333
     17 O4         -5.1498   -2.3983   -0.4910 O.3       1 <0>        -0.2761
     18 C12        -5.9305   -3.3521    0.0826 C.ar      1 <0>         0.1332
     19 C13        -7.1526   -3.0060    0.6401 C.ar      1 <0>        -0.1871
     20 C14        -7.9477   -3.9773    1.2171 C.ar      1 <0>        -0.1087
     21 C15        -7.5199   -5.2936    1.2498 C.ar      1 <0>         0.0462
     22 C16        -6.2975   -5.6395    0.6992 C.ar      1 <0>        -0.1126
     23 C17        -5.5032   -4.6713    0.1160 C.ar      1 <0>        -0.1237
     24 F1         -8.2961   -6.2416    1.8190 F         1 <0>        -0.1468
     25 H2         -6.7344    0.3641   -1.5463 H         1 <0>         0.0851
     26 H3         -5.7648   -0.7739   -2.5122 H         1 <0>         0.0769
     27 H4         -7.2589   -1.3280   -1.7191 H         1 <0>         0.0707
     28 H5         -5.4698    1.5342    0.1194 H         1 <0>         0.4217
     29 H6         -2.2976    0.7854   -1.3090 H         1 <0>         0.1459
     30 H7         -0.4504    4.4430   -0.0485 H         1 <0>         0.1256
     31 H8         -2.4725    5.0439    1.2055 H         1 <0>         0.1277
     32 H9         -7.4843   -1.9784    0.6190 H         1 <0>         0.1442
     33 H10        -8.9016   -3.7089    1.6467 H         1 <0>         0.1366
     34 H11        -5.9650   -6.6667    0.7253 H         1 <0>         0.1393
     35 H12        -4.5500   -4.9414   -0.3140 H         1 <0>         0.1437
     36 O5         -4.8388    4.8189    2.0197 O.co2     1 <0>        -0.7536
     37 O6          1.0261    3.0609   -1.5303 O.co2     1 <0>        -0.7654
@<TRIPOS>BOND
     1    1    2 1
     2    1   25 1
     3    1   26 1
     4    1   27 1
     5    2    3 1
     6    2    4 1
     7    2   17 1
     8    4    5 2
     9    4    6 am
    10    6    7 1
    11    6   28 1
    12    7   12 ar
    13    7    8 ar
    14    8    9 ar
    15    8   29 1
    16    9   10 ar
    17    9   15 1
    18   10   11 ar
    19   10   30 1
    20   11   12 ar
    21   11   31 1
    22   12   13 1
    23   13   14 2
    24   13   36 1
    25   15   16 2
    26   15   37 1
    27   17   18 1
    28   18   23 ar
    29   18   19 ar
    30   19   20 ar
    31   19   32 1
    32   20   21 ar
    33   20   33 1
    34   21   22 ar
    35   21   24 1
    36   22   23 ar
    37   22   34 1
    38   23   35 1
@<TRIPOS>MOLECULE
ZINC13421880
   42    43     0     0     0
SMALL
USER_CHARGES
4-[2-[(3,5-dimethoxyphenyl)amino]-2-oxo-ethoxy]benzene-1,3-dicarboxylic acid
@<TRIPOS>ATOM
      1 C1         -4.1278    5.1853   -1.3208 C.3       1 <0>         0.0283
      2 O1         -2.8291    4.5907   -1.3632 O.3       1 <0>        -0.3069
      3 C2         -2.6621    3.4245   -0.6859 C.ar      1 <0>         0.1832
      4 C3         -1.4273    2.7940   -0.6854 C.ar      1 <0>        -0.1878
      5 C4         -1.2568    1.6029    0.0069 C.ar      1 <0>         0.2349
      6 C5         -2.3242    1.0413    0.6940 C.ar      1 <0>        -0.2163
      7 C6         -3.5570    1.6758    0.6974 C.ar      1 <0>         0.1776
      8 C7         -3.7268    2.8655    0.0051 C.ar      1 <0>        -0.3157
      9 O2         -4.6006    1.1290    1.3746 O.3       1 <0>        -0.3144
     10 C8         -5.8432    1.8333    1.3303 C.3       1 <0>         0.0287
     11 N1         -0.0111    0.9658    0.0074 N.am      1 <0>        -0.6769
     12 C9          1.1203    1.6982    0.0063 C.2       1 <0>         0.5103
     13 O3          1.0603    2.9069   -0.0745 O.2       1 <0>        -0.4610
     14 C10         2.4601    1.0153    0.1056 C.3       1 <0>         0.0378
     15 O4          3.4980    1.9972    0.0846 O.3       1 <0>        -0.2468
     16 C11         4.7728    1.5465    0.1661 C.ar      1 <0>         0.1452
     17 C12         5.0228    0.1831    0.2648 C.ar      1 <0>        -0.2503
     18 C13         6.3157   -0.2804    0.3480 C.ar      1 <0>        -0.0411
     19 C14         7.3896    0.6183    0.3338 C.ar      1 <0>        -0.1734
     20 C15         7.1510    1.9875    0.2357 C.ar      1 <0>        -0.0019
     21 C16         5.8420    2.4565    0.1452 C.ar      1 <0>        -0.1618
     22 C17         5.5804    3.9033    0.0345 C.2       1 <0>         0.4937
     23 O5          4.4378    4.3101   -0.0388 O.co2     1 <0>        -0.6151
     24 C18         8.7734    0.1153    0.4233 C.2       1 <0>         0.4991
     25 O6          9.7052    0.8950    0.4111 O.co2     1 <0>        -0.6339
     26 H1         -4.8578    4.4945   -1.7427 H         1 <0>         0.0522
     27 H2         -4.3925    5.4067   -0.2868 H         1 <0>         0.0536
     28 H3         -4.1239    6.1084   -1.9004 H         1 <0>         0.1000
     29 H4         -0.5983    3.2295   -1.2233 H         1 <0>         0.1542
     30 H5         -2.1934    0.1123    1.2291 H         1 <0>         0.1357
     31 H6         -4.6884    3.3571    0.0044 H         1 <0>         0.1319
     32 H7         -5.7110    2.8301    1.7511 H         1 <0>         0.0544
     33 H8         -6.1768    1.9169    0.2960 H         1 <0>         0.0536
     34 H9         -6.5895    1.2902    1.9101 H         1 <0>         0.0983
     35 H10         0.0382   -0.0029    0.0044 H         1 <0>         0.4137
     36 H11         2.5123    0.4513    1.0369 H         1 <0>         0.0888
     37 H12         2.5851    0.3362   -0.7378 H         1 <0>         0.0886
     38 H13         4.1991   -0.5154    0.2759 H         1 <0>         0.1144
     39 H14         6.5031   -1.3413    0.4241 H         1 <0>         0.1257
     40 H15         7.9777    2.6823    0.2247 H         1 <0>         0.1423
     41 O7          6.6083    4.7742    0.0147 O.co2     1 <0>        -0.7680
     42 O8          9.0042   -1.2087    0.5187 O.co2     1 <0>        -0.7749
@<TRIPOS>BOND
     1    1    2 1
     2    1   26 1
     3    1   27 1
     4    1   28 1
     5    2    3 1
     6    3    8 ar
     7    3    4 ar
     8    4    5 ar
     9    4   29 1
    10    5    6 ar
    11    5   11 1
    12    6    7 ar
    13    6   30 1
    14    7    8 ar
    15    7    9 1
    16    8   31 1
    17    9   10 1
    18   10   32 1
    19   10   33 1
    20   10   34 1
    21   11   12 am
    22   11   35 1
    23   12   13 2
    24   12   14 1
    25   14   15 1
    26   14   36 1
    27   14   37 1
    28   15   16 1
    29   16   21 ar
    30   16   17 ar
    31   17   18 ar
    32   17   38 1
    33   18   19 ar
    34   18   39 1
    35   19   20 ar
    36   19   24 1
    37   20   21 ar
    38   20   40 1
    39   21   22 1
    40   22   23 2
    41   22   41 1
    42   24   25 2
    43   24   42 1
@<TRIPOS>MOLECULE
ZINC13422760
   44    46     0     0     0
SMALL
USER_CHARGES
4-[(1S)-2-(indan-5-ylamino)-1-methyl-2-oxo-ethoxy]benzene-1,3-dicarboxylic acid
@<TRIPOS>ATOM
      1 C1          5.6821    3.7803   -1.3959 C.3       1 <0>        -0.1741
      2 C2          4.9811    3.5013   -0.0649 C.3       1 <0>         0.0596
      3 H1          5.5431    2.7512    0.4915 H         1 <0>         0.0975
      4 C3          4.9072    4.7730    0.7402 C.2       1 <0>         0.5135
      5 O1          3.8289    5.2215    1.0679 O.2       1 <0>        -0.4674
      6 N1          6.0392    5.4121    1.0961 N.am      1 <0>        -0.6785
      7 C4          5.9768    6.5329    1.9315 C.ar      1 <0>         0.1628
      8 C5          4.9990    6.6158    2.9143 C.ar      1 <0>        -0.1199
      9 C6          4.9425    7.7230    3.7356 C.ar      1 <0>        -0.0842
     10 C7          5.8565    8.7534    3.5842 C.ar      1 <0>        -0.1235
     11 C8          6.8311    8.6738    2.6065 C.ar      1 <0>        -0.0844
     12 C9          6.8950    7.5624    1.7844 C.ar      1 <0>        -0.1385
     13 C10         7.6976    9.9144    2.6456 C.3       1 <0>        -0.0783
     14 C11         7.4264   10.5532    4.0242 C.3       1 <0>        -0.1196
     15 C12         6.0023   10.0531    4.3467 C.3       1 <0>        -0.0779
     16 O2          3.6596    3.0181   -0.3146 O.3       1 <0>        -0.2402
     17 C13         3.5235    1.6900   -0.5438 C.ar      1 <0>         0.1456
     18 C14         4.6505    0.8834   -0.6460 C.ar      1 <0>        -0.2521
     19 C15         4.5183   -0.4653   -0.8849 C.ar      1 <0>        -0.0408
     20 C16         3.2470   -1.0364   -1.0211 C.ar      1 <0>        -0.1733
     21 C17         2.1098   -0.2384   -0.9148 C.ar      1 <0>        -0.0020
     22 C18         2.2435    1.1272   -0.6729 C.ar      1 <0>        -0.1621
     23 C19         1.0456    1.9793   -0.5589 C.2       1 <0>         0.4942
     24 O3          1.1649    3.1699   -0.3479 O.co2     1 <0>        -0.6157
     25 C20         3.1117   -2.4827   -1.2777 C.2       1 <0>         0.4991
     26 O4          2.0087   -2.9781   -1.3962 O.co2     1 <0>        -0.6338
     27 H2          6.6900    4.1489   -1.2054 H         1 <0>         0.0657
     28 H3          5.7355    2.8604   -1.9782 H         1 <0>         0.0821
     29 H4          5.1200    4.5304   -1.9523 H         1 <0>         0.0727
     30 H5          6.8971    5.0950    0.7732 H         1 <0>         0.4084
     31 H6          4.2841    5.8153    3.0353 H         1 <0>         0.1405
     32 H7          4.1820    7.7871    4.4998 H         1 <0>         0.1225
     33 H8          7.6591    7.4982    1.0237 H         1 <0>         0.1216
     34 H9          8.7496    9.6441    2.5545 H         1 <0>         0.0720
     35 H10         7.4122   10.6004    1.8481 H         1 <0>         0.0780
     36 H11         8.1404   10.1936    4.7651 H         1 <0>         0.0703
     37 H12         7.4494   11.6410    3.9584 H         1 <0>         0.0730
     38 H13         5.2613   10.7764    4.0063 H         1 <0>         0.0762
     39 H14         5.8965    9.8775    5.4172 H         1 <0>         0.0713
     40 H15         5.6339    1.3174   -0.5420 H         1 <0>         0.1157
     41 H16         5.3984   -1.0858   -0.9673 H         1 <0>         0.1254
     42 H17         1.1283   -0.6767   -1.0199 H         1 <0>         0.1420
     43 O5         -0.1813    1.4376   -0.6886 O.co2     1 <0>        -0.7681
     44 O6          4.2114   -3.2544   -1.3805 O.co2     1 <0>        -0.7750
@<TRIPOS>BOND
     1    1    2 1
     2    1   27 1
     3    1   28 1
     4    1   29 1
     5    2    3 1
     6    2    4 1
     7    2   16 1
     8    4    5 2
     9    4    6 am
    10    6    7 1
    11    6   30 1
    12    7   12 ar
    13    7    8 ar
    14    8    9 ar
    15    8   31 1
    16    9   10 ar
    17    9   32 1
    18   10   15 1
    19   10   11 ar
    20   11   12 ar
    21   11   13 1
    22   12   33 1
    23   13   14 1
    24   13   34 1
    25   13   35 1
    26   14   15 1
    27   14   36 1
    28   14   37 1
    29   15   38 1
    30   15   39 1
    31   16   17 1
    32   17   22 ar
    33   17   18 ar
    34   18   19 ar
    35   18   40 1
    36   19   20 ar
    37   19   41 1
    38   20   21 ar
    39   20   25 1
    40   21   22 ar
    41   21   42 1
    42   22   23 1
    43   23   24 2
    44   23   43 1
    45   25   26 2
    46   25   44 1
@<TRIPOS>MOLECULE
ZINC43061599
   40    41     0     0     0
SMALL
USER_CHARGES

@<TRIPOS>ATOM
      1 C1          0.2402    1.7881   -0.3769 C.ar      1 <0>        -0.1513
      2 C2          1.4503    2.4505   -0.3561 C.ar      1 <0>        -0.0979
      3 C3          2.6424    1.7251   -0.3358 C.ar      1 <0>        -0.0499
      4 C4          2.5978    0.3141   -0.3367 C.ar      1 <0>        -0.0659
      5 C5          1.3619   -0.3346   -0.3579 C.ar      1 <0>        -0.1163
      6 C6          0.1963    0.4030   -0.3778 C.ar      1 <0>        -0.1131
      7 C7          3.8451   -0.4673   -0.3159 C.2       1 <0>         0.5375
      8 O1          4.4288   -0.7159   -1.3620 O.co2     1 <0>        -0.6765
      9 O2          4.2982   -0.8682    0.7476 O.co2     1 <0>        -0.6731
     10 C8          3.9360    2.4257   -0.3140 C.2       1 <0>         0.0836
     11 N1          5.0393    1.7496   -0.1890 N.2       1 <0>        -0.1576
     12 N2          6.2711    2.4167   -0.1683 N.am      1 <0>        -0.5638
     13 C9          7.4149    1.7159   -0.0387 C.2       1 <0>         0.5184
     14 O3          7.3779    0.5061    0.0601 O.2       1 <0>        -0.4373
     15 C10         8.7251    2.4255   -0.0167 C.2       1 <0>         0.5382
     16 O4          8.7622    3.6352   -0.1156 O.2       1 <0>        -0.5058
     17 N3          9.8690    1.7246    0.1129 N.am      1 <0>        -0.5508
     18 N4         11.1008    2.3917    0.1336 N.2       1 <0>        -0.2705
     19 C11        12.2041    1.7157    0.2586 C.2       1 <0>         0.1208
     20 C12        13.4976    2.4162    0.2803 C.ar      1 <0>        -0.0281
     21 C13        14.7037    1.6826    0.2856 C.ar      1 <0>        -0.1032
     22 C14        15.9223    2.3632    0.3058 C.ar      1 <0>        -0.0934
     23 C15        15.9415    3.7425    0.3204 C.ar      1 <0>        -0.1240
     24 C16        14.7576    4.4626    0.3152 C.ar      1 <0>        -0.1366
     25 C17        13.5416    3.8112    0.2900 C.ar      1 <0>        -0.0965
     26 C18        14.6765    0.2109    0.2703 C.2       1 <0>         0.5226
     27 O5         15.7196   -0.4191    0.1607 O.co2     1 <0>        -0.6786
     28 O6         13.6109   -0.3823    0.3673 O.co2     1 <0>        -0.6733
     29 H1         -0.6800    2.3533   -0.3880 H         1 <0>         0.1146
     30 H2          1.4750    3.5302   -0.3559 H         1 <0>         0.1186
     31 H3          1.3183   -1.4137   -0.3591 H         1 <0>         0.1181
     32 H4         -0.7577   -0.1029   -0.3942 H         1 <0>         0.1136
     33 H5          3.9689    3.5016   -0.4019 H         1 <0>         0.1146
     34 H6          6.3007    3.3831   -0.2473 H         1 <0>         0.3869
     35 H7          9.8394    0.7582    0.1918 H         1 <0>         0.4007
     36 H8         12.1712    0.6397    0.3465 H         1 <0>         0.1858
     37 H9         16.8499    1.8101    0.3103 H         1 <0>         0.1298
     38 H10        16.8865    4.2651    0.3364 H         1 <0>         0.1150
     39 H11        14.7869    5.5422    0.3269 H         1 <0>         0.1156
     40 H12        12.6239    4.3805    0.2816 H         1 <0>         0.1291
@<TRIPOS>BOND
     1    1    6 ar
     2    1    2 ar
     3    1   29 1
     4    2    3 ar
     5    2   30 1
     6    3    4 ar
     7    3   10 1
     8    4    5 ar
     9    4    7 1
    10    5    6 ar
    11    5   31 1
    12    6   32 1
    13    7    8 2
    14    7    9 1
    15   10   11 2
    16   10   33 1
    17   11   12 1
    18   12   13 am
    19   12   34 1
    20   13   14 2
    21   13   15 1
    22   15   16 2
    23   15   17 am
    24   17   18 1
    25   17   35 1
    26   18   19 2
    27   19   20 1
    28   19   36 1
    29   20   25 ar
    30   20   21 ar
    31   21   22 ar
    32   21   26 1
    33   22   23 ar
    34   22   37 1
    35   23   24 ar
    36   23   38 1
    37   24   25 ar
    38   24   39 1
    39   25   40 1
    40   26   27 2
    41   26   28 1
@<TRIPOS>MOLECULE
ZINC66349133
   55    55     0     0     0
SMALL
USER_CHARGES

@<TRIPOS>ATOM
      1 C1         -0.3384    1.5050    0.0444 C.3       1 <0>        -0.1528
      2 C2         -0.0793    0.0207    0.0189 C.2       1 <0>         0.3148
      3 C3          0.0614   -0.7233    1.2805 C.2       1 <0>        -0.5166
      4 C4         -0.9857   -1.5337    1.7180 C.2       1 <0>         0.3964
      5 O1         -2.0058   -1.6159    1.0519 O.3       1 <0>        -0.5865
      6 C5         -0.8703   -2.3089    3.0044 C.3       1 <0>        -0.1429
      7 C6          0.0461   -1.5538    3.9710 C.3       1 <0>        -0.0500
      8 C7          1.4137   -1.3566    3.3113 C.3       1 <0>        -0.1423
      9 C8          1.2416   -0.6099    2.0144 C.2       1 <0>         0.3932
     10 O2          2.1426    0.1049    1.6040 O.2       1 <0>        -0.5832
     11 C9          0.2109   -2.3639    5.2584 C.3       1 <0>        -0.1367
     12 C10        -0.5663   -0.1901    4.2970 C.3       1 <0>        -0.1417
     13 N1          0.0195   -0.6004   -1.1140 N.2       1 <0>        -0.5490
     14 C11        -0.0073    0.1556   -2.3685 C.3       1 <0>         0.0386
     15 C12         1.3434    0.0203   -3.0744 C.3       1 <0>        -0.0960
     16 C13         1.3154    0.8099   -4.3847 C.3       1 <0>         0.0970
     17 H1          1.0332    1.8427   -4.1805 H         1 <0>         0.0817
     18 C14         2.6819    0.7785   -5.0193 C.2       1 <0>         0.4959
     19 O3          2.9713   -0.1124   -5.7997 O.co2     1 <0>        -0.6936
     20 O4          3.4980    1.6441   -4.7524 O.co2     1 <0>        -0.6949
     21 N2          0.3395    0.2081   -5.2967 N.am      1 <0>        -0.6685
     22 C15        -0.2329    0.9565   -6.2604 C.2       1 <0>         0.6473
     23 O5          0.0605    2.1302   -6.3729 O.2       1 <0>        -0.5764
     24 O6         -1.1298    0.4034   -7.0986 O.3       1 <0>        -0.3666
     25 C16        -1.6967    1.2552   -8.0961 C.3       1 <0>         0.1341
     26 C17        -0.5832    1.8050   -8.9900 C.3       1 <0>        -0.1844
     27 C18        -2.6859    0.4561   -8.9469 C.3       1 <0>        -0.1358
     28 C19        -2.4278    2.4165   -7.4196 C.3       1 <0>        -0.1838
     29 H2         -0.4765    1.8321    1.0749 H         1 <0>         0.0593
     30 H3          0.5113    2.0297   -0.3926 H         1 <0>         0.0617
     31 H4         -1.8580   -2.4205    3.4517 H         1 <0>         0.0633
     32 H5         -0.4502   -3.2936    2.7992 H         1 <0>         0.0704
     33 H6          2.0605   -0.7866    3.9783 H         1 <0>         0.0654
     34 H7          1.8640   -2.3286    3.1101 H         1 <0>         0.0706
     35 H8          0.6510   -3.3332    5.0239 H         1 <0>         0.0501
     36 H9          0.8634   -1.8253    5.9456 H         1 <0>         0.0491
     37 H10        -0.7642   -2.5104    5.7229 H         1 <0>         0.0485
     38 H11        -1.5432   -0.3317    4.7593 H         1 <0>         0.0439
     39 H12         0.0870    0.3464    4.9852 H         1 <0>         0.0447
     40 H13        -0.6789    0.3865    3.3789 H         1 <0>         0.0736
     41 H14        -1.2373    1.7269   -0.5308 H         1 <0>         0.0517
     42 H15        -0.7946   -0.2366   -3.0123 H         1 <0>         0.0604
     43 H16        -0.2022    1.2066   -2.1553 H         1 <0>         0.0318
     44 H17         2.1307    0.4125   -2.4306 H         1 <0>         0.0765
     45 H18         1.5383   -1.0307   -3.2877 H         1 <0>         0.0689
     46 H19         0.1053   -0.7289   -5.2069 H         1 <0>         0.3990
     47 H20        -0.0624    0.9777   -9.4719 H         1 <0>         0.0571
     48 H21        -1.0156    2.4548   -9.7509 H         1 <0>         0.0594
     49 H22         0.1215    2.3743   -8.3839 H         1 <0>         0.0922
     50 H23        -3.4791    0.0645   -8.3101 H         1 <0>         0.0628
     51 H24        -3.1183    1.1059   -9.7078 H         1 <0>         0.0719
     52 H25        -2.1650   -0.3712   -9.4289 H         1 <0>         0.0635
     53 H26        -1.7231    2.9858   -6.8135 H         1 <0>         0.0910
     54 H27        -2.8602    3.0663   -8.1805 H         1 <0>         0.0604
     55 H28        -3.2210    2.0249   -6.7828 H         1 <0>         0.0555
@<TRIPOS>BOND
     1    1    2 1
     2    1   29 1
     3    1   30 1
     4    1   41 1
     5    2    3 1
     6    2   13 2
     7    3    9 1
     8    3    4 2
     9    4    5 1
    10    4    6 1
    11    6    7 1
    12    6   31 1
    13    6   32 1
    14    7    8 1
    15    7   11 1
    16    7   12 1
    17    8    9 1
    18    8   33 1
    19    8   34 1
    20    9   10 2
    21   11   35 1
    22   11   36 1
    23   11   37 1
    24   12   38 1
    25   12   39 1
    26   12   40 1
    27   13   14 1
    28   14   15 1
    29   14   42 1
    30   14   43 1
    31   15   16 1
    32   15   44 1
    33   15   45 1
    34   16   17 1
    35   16   18 1
    36   16   21 1
    37   18   19 2
    38   18   20 1
    39   21   22 am
    40   21   46 1
    41   22   23 2
    42   22   24 1
    43   24   25 1
    44   25   26 1
    45   25   27 1
    46   25   28 1
    47   26   47 1
    48   26   48 1
    49   26   49 1
    50   27   50 1
    51   27   51 1
    52   27   52 1
    53   28   53 1
    54   28   54 1
    55   28   55 1
@<TRIPOS>MOLECULE
ZINC13392081
   38    39     0     0     0
SMALL
USER_CHARGES
2-[(2-methoxy-4-methylsulfanyl-benzoyl)amino]terephthalic acid
@<TRIPOS>ATOM
      1 C1          2.2240    5.3201    0.0221 C.3       1 <0>         0.0209
      2 O1          2.3269    3.8948    0.0101 O.3       1 <0>        -0.2688
      3 C2          1.1657    3.1936   -0.0003 C.ar      1 <0>         0.2010
      4 C3         -0.0478    3.8579    0.0014 C.ar      1 <0>        -0.2048
      5 C4         -1.2342    3.1334   -0.0089 C.ar      1 <0>        -0.0298
      6 C5         -1.2052    1.7391   -0.0266 C.ar      1 <0>        -0.1788
      7 C6         -0.0138    1.0744   -0.0227 C.ar      1 <0>        -0.0222
      8 C7          1.1892    1.7895   -0.0124 C.ar      1 <0>        -0.1566
      9 C8          2.4741    1.0727   -0.0139 C.2       1 <0>         0.5379
     10 O2          3.5185    1.6963   -0.0049 O.2       1 <0>        -0.5032
     11 N1          2.4940   -0.2749   -0.0250 N.am      1 <0>        -0.6408
     12 C9          3.7043   -0.9521   -0.1435 C.ar      1 <0>         0.1566
     13 C10         4.7881   -0.3387   -0.7560 C.ar      1 <0>        -0.1121
     14 C11         5.9973   -1.0198   -0.8725 C.ar      1 <0>        -0.1018
     15 C12         6.1209   -2.3197   -0.3737 C.ar      1 <0>        -0.1149
     16 C13         5.0491   -2.9326    0.2342 C.ar      1 <0>        -0.0786
     17 C14         3.8340   -2.2546    0.3611 C.ar      1 <0>        -0.1591
     18 C15         2.6869   -2.9100    1.0189 C.2       1 <0>         0.5073
     19 O3          1.6049   -2.3582    1.0448 O.co2     1 <0>        -0.6472
     20 C16         7.1533   -0.3662   -1.5250 C.2       1 <0>         0.4969
     21 O4          7.0473    0.7633   -1.9584 O.co2     1 <0>        -0.6336
     22 S1         -2.7797    3.9795   -0.0073 S.3       1 <0>        -0.1232
     23 C17        -4.0099    2.6464   -0.0228 C.3       1 <0>        -0.1432
     24 H1          1.6820    5.6377    0.9129 H         1 <0>         0.0527
     25 H2          3.2229    5.7564    0.0297 H         1 <0>         0.1028
     26 H3          1.6887    5.6532   -0.8670 H         1 <0>         0.0535
     27 H4         -0.0733    4.9376    0.0103 H         1 <0>         0.1370
     28 H5         -2.1308    1.1827   -0.0393 H         1 <0>         0.1288
     29 H6          0.0010   -0.0055   -0.0320 H         1 <0>         0.1471
     30 H7          1.6649   -0.7728    0.0494 H         1 <0>         0.4204
     31 H8          4.6940    0.6658   -1.1415 H         1 <0>         0.1472
     32 H9          7.0602   -2.8447   -0.4658 H         1 <0>         0.1243
     33 H10         5.1488   -3.9372    0.6179 H         1 <0>         0.1263
     34 H11        -3.8818    2.0235    0.8625 H         1 <0>         0.0872
     35 H12        -5.0115    3.0763   -0.0227 H         1 <0>         0.1061
     36 H13        -3.8755    2.0384   -0.9174 H         1 <0>         0.0866
     37 O5          2.8397   -4.1204    1.5907 O.co2     1 <0>        -0.7548
     38 O6          8.3232   -1.0238   -1.6383 O.co2     1 <0>        -0.7671
@<TRIPOS>BOND
     1    1    2 1
     2    1   24 1
     3    1   25 1
     4    1   26 1
     5    2    3 1
     6    3    8 ar
     7    3    4 ar
     8    4    5 ar
     9    4   27 1
    10    5    6 ar
    11    5   22 1
    12    6    7 ar
    13    6   28 1
    14    7    8 ar
    15    7   29 1
    16    8    9 1
    17    9   10 2
    18    9   11 am
    19   11   12 1
    20   11   30 1
    21   12   17 ar
    22   12   13 ar
    23   13   14 ar
    24   13   31 1
    25   14   15 ar
    26   14   20 1
    27   15   16 ar
    28   15   32 1
    29   16   17 ar
    30   16   33 1
    31   17   18 1
    32   18   19 2
    33   18   37 1
    34   20   21 2
    35   20   38 1
    36   22   23 1
    37   23   34 1
    38   23   35 1
    39   23   36 1
@<TRIPOS>MOLECULE
ZINC20458630
   35    36     0     0     0
SMALL
USER_CHARGES
(E)-3-[3-[(2-nitrophenoxy)sulfonylamino]phenyl]prop-2-enoic acid
@<TRIPOS>ATOM
      1 C1          1.2269   -2.0614   -0.0221 C.ar      1 <0>        -0.1318
      2 C2          0.0406   -2.7720   -0.0142 C.ar      1 <0>        -0.0502
      3 C3         -1.1671   -2.1018    0.0014 C.ar      1 <0>        -0.1248
      4 C4         -1.1893   -0.7145    0.0096 C.ar      1 <0>         0.2001
      5 C5          0.0021   -0.0041    0.0020 C.ar      1 <0>        -0.0532
      6 C6          1.2074   -0.6791   -0.0189 C.ar      1 <0>        -0.0474
      7 N1         -0.0180    1.4758    0.0102 N.pl3     1 <0>         0.0448
      8 O1          1.0284    2.0991    0.0035 O.2       1 <0>        -0.1678
      9 O2         -1.0810    2.0704    0.0184 O.3       1 <0>        -0.1578
     10 O3         -2.3762   -0.0528    0.0245 O.3       1 <0>        -0.6999
     11 S1         -2.9302    0.2561   -1.3591 S.o2      1 <0>         2.6530
     12 O4         -4.0442    1.1172   -1.1675 O.2       1 <0>        -1.0130
     13 O5         -1.8201    0.6155   -2.1701 O.2       1 <0>        -1.0205
     14 N2         -3.5273   -1.1604   -1.9748 N.2       1 <0>        -1.0689
     15 C7         -4.6206   -1.7811   -1.3655 C.ar      1 <0>         0.2375
     16 C8         -4.6627   -1.9131    0.0183 C.ar      1 <0>        -0.2457
     17 C9         -5.7441   -2.5219    0.6278 C.ar      1 <0>        -0.0840
     18 C10        -6.7850   -3.0127   -0.1328 C.ar      1 <0>        -0.1842
     19 C11        -6.7511   -2.8904   -1.5256 C.ar      1 <0>        -0.0210
     20 C12        -5.6600   -2.2700   -2.1405 C.ar      1 <0>        -0.1481
     21 C13        -7.8601   -3.4125   -2.3405 C.2       1 <0>        -0.0954
     22 C14        -8.9119   -4.0108   -1.7441 C.2       1 <0>        -0.1751
     23 C15       -10.0138   -4.5295   -2.5538 C.2       1 <0>         0.4801
     24 O6         -9.9819   -4.4214   -3.7648 O.co2     1 <0>        -0.6412
     25 O7        -11.0656   -5.1278   -1.9574 O.co2     1 <0>        -0.7760
     26 H1          2.1702   -2.5872   -0.0351 H         1 <0>         0.1484
     27 H2          0.0584   -3.8518   -0.0205 H         1 <0>         0.1505
     28 H3         -2.0933   -2.6572    0.0069 H         1 <0>         0.1661
     29 H4          2.1352   -0.1264   -0.0289 H         1 <0>         0.1561
     30 H5         -3.8493   -1.5347    0.6196 H         1 <0>         0.1068
     31 H6         -5.7720   -2.6172    1.7032 H         1 <0>         0.1038
     32 H7         -7.6261   -3.4910    0.3472 H         1 <0>         0.1128
     33 H8         -5.6270   -2.1724   -3.2155 H         1 <0>         0.1160
     34 H9         -7.8313   -3.3148   -3.4358 H         1 <0>         0.1235
     35 H10        -8.9407   -4.1085   -0.6488 H         1 <0>         0.1067
@<TRIPOS>BOND
     1    1    6 ar
     2    1    2 ar
     3    1   26 1
     4    2    3 ar
     5    2   27 1
     6    3    4 ar
     7    3   28 1
     8    4    5 ar
     9    4   10 1
    10    5    6 ar
    11    5    7 1
    12    6   29 1
    13    7    8 2
    14    7    9 1
    15   10   11 1
    16   11   12 2
    17   11   13 2
    18   11   14 1
    19   14   15 1
    20   15   20 ar
    21   15   16 ar
    22   16   17 ar
    23   16   30 1
    24   17   18 ar
    25   17   31 1
    26   18   19 ar
    27   18   32 1
    28   19   20 ar
    29   19   21 1
    30   20   33 1
    31   21   22 2
    32   21   34 1
    33   22   23 1
    34   22   35 1
    35   23   24 2
    36   23   25 1
@<TRIPOS>MOLECULE
ZINC13092831
   42    43     0     0     0
SMALL
USER_CHARGES

@<TRIPOS>ATOM
      1 C1         -0.4973    1.4519   -0.1591 C.3       1 <0>        -0.1184
      2 C2         -0.2265   -0.0284   -0.0788 C.ar      1 <0>        -0.0561
      3 C3         -0.2643   -0.7985   -1.2284 C.ar      1 <0>        -0.1371
      4 C4         -0.0177   -2.1534   -1.1632 C.ar      1 <0>        -0.0252
      5 C5          0.2712   -2.7494    0.0687 C.ar      1 <0>        -0.1617
      6 C6          0.3075   -1.9646    1.2255 C.ar      1 <0>        -0.0601
      7 C7          0.0641   -0.6096    1.1429 C.ar      1 <0>        -0.1069
      8 C8          0.1086    0.2392    2.3874 C.3       1 <0>        -0.1161
      9 C9          0.5352   -4.1951    0.1472 C.2       1 <0>         0.4146
     10 O1          0.6110   -4.8535   -0.8681 O.2       1 <0>        -0.4320
     11 C10         0.7113   -4.8571    1.4895 C.3       1 <0>        -0.1649
     12 S1          1.0208   -6.6289    1.2539 S.3       1 <0>         0.0028
     13 C11         1.2023   -7.2515    2.8922 C.ar      1 <0>         0.2538
     14 N1          1.4432   -8.5433    3.0804 N.ar      1 <0>        -0.5773
     15 C12         1.5792   -9.0072    4.3179 C.ar      1 <0>         0.4211
     16 O2          1.8259  -10.3210    4.5402 O.3       1 <0>        -0.6600
     17 C13         1.4633   -8.1145    5.3843 C.ar      1 <0>        -0.0397
     18 N2          1.2231   -6.8409    5.1352 N.ar      1 <0>        -0.2059
     19 N3          1.1020   -6.4223    3.9242 N.ar      1 <0>        -0.4091
     20 C14         1.6102   -8.5992    6.8037 C.3       1 <0>        -0.0101
     21 C15         3.0784   -8.5079    7.2244 C.3       1 <0>        -0.1652
     22 C16         3.2253   -8.9926    8.6437 C.2       1 <0>         0.4977
     23 O3          2.2464   -9.3756    9.2615 O.co2     1 <0>        -0.7015
     24 O4          4.3230   -9.0018    9.1742 O.co2     1 <0>        -0.7190
     25 C17        -0.0598   -2.9901   -2.4159 C.3       1 <0>        -0.1229
     26 H1          0.4381    1.9835   -0.3334 H         1 <0>         0.0722
     27 H2         -1.1868    1.6512   -0.9795 H         1 <0>         0.0660
     28 H3         -0.9393    1.7918    0.7775 H         1 <0>         0.0711
     29 H4         -0.4879   -0.3369   -2.1789 H         1 <0>         0.1250
     30 H5          0.5295   -2.4176    2.1804 H         1 <0>         0.1393
     31 H6         -0.8814    0.2691    2.8424 H         1 <0>         0.0712
     32 H7          0.8203   -0.1885    3.0936 H         1 <0>         0.0715
     33 H8          0.4193    1.2508    2.1262 H         1 <0>         0.0665
     34 H9          1.5571   -4.4064    2.0087 H         1 <0>         0.1234
     35 H10        -0.1931   -4.7220    2.0827 H         1 <0>         0.1230
     36 H11         1.0038   -7.9792    7.4639 H         1 <0>         0.0613
     37 H12         1.2769   -9.6349    6.8703 H         1 <0>         0.0768
     38 H13         3.6848   -9.1279    6.5641 H         1 <0>         0.0561
     39 H14         3.4117   -7.4723    7.1578 H         1 <0>         0.0497
     40 H15         0.9513   -3.1147   -2.8038 H         1 <0>         0.0760
     41 H16        -0.4837   -3.9676   -2.1859 H         1 <0>         0.0937
     42 H17        -0.6773   -2.4932   -3.1641 H         1 <0>         0.0565
@<TRIPOS>BOND
     1    1    2 1
     2    1   26 1
     3    1   27 1
     4    1   28 1
     5    2    7 ar
     6    2    3 ar
     7    3    4 ar
     8    3   29 1
     9    4    5 ar
    10    4   25 1
    11    5    6 ar
    12    5    9 1
    13    6    7 ar
    14    6   30 1
    15    7    8 1
    16    8   31 1
    17    8   32 1
    18    8   33 1
    19    9   10 2
    20    9   11 1
    21   11   12 1
    22   11   34 1
    23   11   35 1
    24   12   13 1
    25   13   14 ar
    26   13   19 ar
    27   14   15 ar
    28   15   16 1
    29   15   17 ar
    30   17   18 ar
    31   17   20 1
    32   18   19 ar
    33   20   21 1
    34   20   36 1
    35   20   37 1
    36   21   22 1
    37   21   38 1
    38   21   39 1
    39   22   23 2
    40   22   24 1
    41   25   40 1
    42   25   41 1
    43   25   42 1
@<TRIPOS>MOLECULE
ZINC41627632
   42    43     0     0     0
SMALL
USER_CHARGES

@<TRIPOS>ATOM
      1 C1          7.9177   -2.3167   -4.0217 C.3       1 <0>        -0.1521
      2 C2          6.6750   -3.1271   -3.6478 C.3       1 <0>        -0.1150
      3 C3          7.0833   -4.3097   -2.7672 C.3       1 <0>        -0.0727
      4 C4          5.8593   -5.1079   -2.3989 C.2       1 <0>         0.1973
      5 C5          5.5128   -6.2032   -3.1365 C.2       1 <0>        -0.2919
      6 C6          4.3670   -6.9325   -2.7737 C.2       1 <0>         0.5313
      7 O1          4.0290   -7.9167   -3.4108 O.2       1 <0>        -0.5322
      8 N1          3.6481   -6.5234   -1.7066 N.am      1 <0>        -0.6132
      9 H1          2.8542   -7.0119   -1.4383 H         1 <0>         0.4212
     10 C7          4.0419   -5.4227   -1.0080 C.2       1 <0>         0.3686
     11 N2          5.1214   -4.7471   -1.3523 N.2       1 <0>        -0.5438
     12 S1          3.0973   -4.8959    0.3829 S.3       1 <0>         0.0697
     13 C8          4.0675   -3.5312    1.0809 C.3       1 <0>        -0.0954
     14 H2          4.2888   -2.8054    0.2984 H         1 <0>         0.1385
     15 C9          3.2663   -2.8529    2.1939 C.3       1 <0>        -0.1056
     16 C10         2.0259   -2.1861    1.5957 C.3       1 <0>        -0.1595
     17 C11         5.3567   -4.0692    1.6463 C.2       1 <0>         0.5205
     18 O2          5.4542   -5.2468    1.9199 O.2       1 <0>        -0.4444
     19 N3          6.4013   -3.2418    1.8479 N.am      1 <0>        -0.6061
     20 C12         7.5910   -3.7383    2.3696 C.2       1 <0>         0.2345
     21 N4          7.8938   -4.9724    2.7211 N.2       1 <0>        -0.2986
     22 N5          9.0294   -5.2749    3.1853 N.2       1 <0>        -0.2358
     23 C13         9.9384   -4.3304    3.3226 C.2       1 <0>         0.0347
     24 S2          9.0253   -2.9207    2.7111 S.3       1 <0>         0.0741
     25 C14        11.3503   -4.4159    3.8424 C.3       1 <0>        -0.0602
     26 H3          8.3964   -1.9464   -3.1151 H         1 <0>         0.0554
     27 H4          8.6153   -2.9521   -4.5673 H         1 <0>         0.0571
     28 H5          7.6269   -1.4741   -4.6491 H         1 <0>         0.0590
     29 H6          5.9774   -2.4916   -3.1022 H         1 <0>         0.0666
     30 H7          6.1964   -3.4973   -4.5544 H         1 <0>         0.0662
     31 H8          7.7809   -4.9452   -3.3128 H         1 <0>         0.0879
     32 H9          7.5620   -3.9395   -1.8606 H         1 <0>         0.0831
     33 H10         6.1091   -6.5043   -3.9852 H         1 <0>         0.1575
     34 H11         2.9598   -3.5987    2.9273 H         1 <0>         0.0866
     35 H12         3.8856   -2.0988    2.6796 H         1 <0>         0.0935
     36 H13         2.3326   -1.3833    0.9253 H         1 <0>         0.0654
     37 H14         1.4495   -2.9246    1.0384 H         1 <0>         0.0682
     38 H15         1.4119   -1.7755    2.3973 H         1 <0>         0.0714
     39 H16         6.3233   -2.3000    1.6290 H         1 <0>         0.4291
     40 H17        12.0298   -4.6239    3.0159 H         1 <0>         0.0959
     41 H18        11.6239   -3.4692    4.3083 H         1 <0>         0.0913
     42 H19        11.4184   -5.2164    4.5791 H         1 <0>         0.1022
@<TRIPOS>BOND
     1    1    2 1
     2    1   26 1
     3    1   27 1
     4    1   28 1
     5    2    3 1
     6    2   29 1
     7    2   30 1
     8    3    4 1
     9    3   31 1
    10    3   32 1
    11    4   11 1
    12    4    5 2
    13    5    6 1
    14    5   33 1
    15    6    7 2
    16    6    8 am
    17    8    9 1
    18    8   10 1
    19   10   11 2
    20   10   12 1
    21   12   13 1
    22   13   14 1
    23   13   15 1
    24   13   17 1
    25   15   16 1
    26   15   34 1
    27   15   35 1
    28   16   36 1
    29   16   37 1
    30   16   38 1
    31   17   18 2
    32   17   19 am
    33   19   20 1
    34   19   39 1
    35   20   24 1
    36   20   21 2
    37   21   22 1
    38   22   23 2
    39   23   24 1
    40   23   25 1
    41   25   40 1
    42   25   41 1
    43   25   42 1
@<TRIPOS>MOLECULE
ZINC62348946
   36    36     0     0     0
SMALL
USER_CHARGES

@<TRIPOS>ATOM
      1 C1          0.0681    1.5015    0.0719 C.3       1 <0>        -0.0948
      2 C2          0.0442   -0.0048    0.0315 C.ar      1 <0>        -0.0733
      3 C3         -0.1372   -0.6587   -1.1732 C.ar      1 <0>        -0.1917
      4 C4         -0.1610   -2.0477   -1.2193 C.ar      1 <0>         0.2634
      5 C5         -0.0020   -2.7829   -0.0547 C.ar      1 <0>        -0.2232
      6 C6          0.1816   -2.1230    1.1617 C.ar      1 <0>        -0.0715
      7 C7          0.2090   -0.7261    1.1957 C.ar      1 <0>        -0.1625
      8 C8          0.4124   -0.0079    2.5049 C.3       1 <0>        -0.0769
      9 C9          0.3511   -2.8975    2.4062 C.2       1 <0>         0.5295
     10 O1          1.2153   -3.7598    2.4769 O.co2     1 <0>        -0.6971
     11 O2         -0.3727   -2.6770    3.3670 O.co2     1 <0>        -0.7011
     12 N1         -0.3455   -2.7031   -2.4394 N.2       1 <0>        -1.1017
     13 S1         -0.3738   -4.3579   -2.4944 S.o2      1 <0>         2.5399
     14 O3          0.9278   -4.7566   -2.0868 O.2       1 <0>        -0.9960
     15 O4         -1.5159   -4.7265   -1.7334 O.2       1 <0>        -1.0164
     16 C10        -0.6319   -4.7618   -4.2439 C.3       1 <0>        -0.5802
     17 H1         -1.5746   -4.3310   -4.5811 H         1 <0>         0.1512
     18 C11         0.5174   -4.1875   -5.0748 C.3       1 <0>        -0.1172
     19 C12        -0.6747   -6.2587   -4.4128 C.2       1 <0>         0.4889
     20 O5         -0.1993   -6.9762   -3.5649 O.2       1 <0>        -0.4931
     21 O6         -1.2411   -6.7949   -5.5053 O.3       1 <0>        -0.3500
     22 C13        -1.2465   -8.2208   -5.5998 C.3       1 <0>         0.0287
     23 H2          1.0902    1.8526   -0.0697 H         1 <0>         0.0516
     24 H3         -0.5651    1.8964   -0.7226 H         1 <0>         0.0499
     25 H4         -0.3036    1.8450    1.0373 H         1 <0>         0.0546
     26 H5         -0.2612   -0.0881   -2.0817 H         1 <0>         0.1013
     27 H6         -0.0205   -3.8622   -0.0883 H         1 <0>         0.0968
     28 H7         -0.5565    0.2119    2.9531 H         1 <0>         0.0474
     29 H8          0.9901   -0.6395    3.1798 H         1 <0>         0.0559
     30 H9          0.9509    0.9232    2.3286 H         1 <0>         0.0358
     31 H10         0.3623   -4.4302   -6.1261 H         1 <0>         0.0626
     32 H11         0.5484   -3.1048   -4.9526 H         1 <0>         0.1003
     33 H12         1.4601   -4.6184   -4.7377 H         1 <0>         0.0697
     34 H13        -0.2207   -8.5894   -5.5909 H         1 <0>         0.0597
     35 H14        -1.7903   -8.6390   -4.7528 H         1 <0>         0.0613
     36 H15        -1.7325   -8.5215   -6.5279 H         1 <0>         0.0985
@<TRIPOS>BOND
     1    1    2 1
     2    1   23 1
     3    1   24 1
     4    1   25 1
     5    2    7 ar
     6    2    3 ar
     7    3    4 ar
     8    3   26 1
     9    4    5 ar
    10    4   12 1
    11    5    6 ar
    12    5   27 1
    13    6    7 ar
    14    6    9 1
    15    7    8 1
    16    8   28 1
    17    8   29 1
    18    8   30 1
    19    9   10 2
    20    9   11 1
    21   12   13 1
    22   13   14 2
    23   13   15 2
    24   13   16 1
    25   16   17 1
    26   16   18 1
    27   16   19 1
    28   18   31 1
    29   18   32 1
    30   18   33 1
    31   19   20 2
    32   19   21 1
    33   21   22 1
    34   22   34 1
    35   22   35 1
    36   22   36 1
@<TRIPOS>MOLECULE
ZINC13169432
   40    42     0     0     0
SMALL
USER_CHARGES
5-[[(E)-3-(2,3-dihydro-1,4-benzodioxin-6-yl)prop-2-enoyl]amino]benzene-1,3-dicarboxylic acid
@<TRIPOS>ATOM
      1 C1         -2.4037    1.3263    0.1743 C.ar      1 <0>        -0.0984
      2 C2         -1.2076    2.0087    0.1629 C.ar      1 <0>        -0.1133
      3 C3         -0.0086    1.3252    0.3285 C.ar      1 <0>         0.0513
      4 C4         -0.0110   -0.0575    0.5019 C.ar      1 <0>         0.0469
      5 C5         -1.2066   -0.7506    0.5099 C.ar      1 <0>        -0.0916
      6 C6         -2.4139   -0.0623    0.3458 C.ar      1 <0>        -0.0541
      7 C7         -3.6880   -0.7954    0.3538 C.2       1 <0>        -0.0385
      8 C8         -4.8513   -0.1288    0.1952 C.2       1 <0>        -0.1833
      9 C9         -6.1186   -0.8580    0.2032 C.2       1 <0>         0.5296
     10 O1         -6.1249   -2.0660    0.3529 O.2       1 <0>        -0.5155
     11 N1         -7.2799   -0.1925    0.0449 N.am      1 <0>        -0.6559
     12 C10        -8.4827   -0.8994   -0.0581 C.ar      1 <0>         0.0858
     13 C11        -8.5050   -2.1406   -0.6773 C.ar      1 <0>        -0.0765
     14 C12        -9.7029   -2.8511   -0.7776 C.ar      1 <0>        -0.1266
     15 C13       -10.8789   -2.3072   -0.2641 C.ar      1 <0>        -0.0356
     16 C14       -10.8538   -1.0577    0.3527 C.ar      1 <0>        -0.1266
     17 C15        -9.6514   -0.3550    0.4541 C.ar      1 <0>        -0.1037
     18 C16       -12.0980   -0.4773    0.8989 C.2       1 <0>         0.4987
     19 O2        -12.0752    0.6117    1.4367 O.co2     1 <0>        -0.6480
     20 C17        -9.7249   -4.1754   -1.4327 C.2       1 <0>         0.4976
     21 O3         -8.6995   -4.6488   -1.8800 O.co2     1 <0>        -0.6421
     22 O4          1.1553   -0.7406    0.6657 O.3       1 <0>        -0.3066
     23 C18         2.3564   -0.0644    0.2787 C.3       1 <0>         0.0204
     24 C19         2.3106    1.3595    0.8493 C.3       1 <0>         0.0204
     25 O5          1.1599    2.0209    0.3132 O.3       1 <0>        -0.3075
     26 H1         -3.3329    1.8621    0.0481 H         1 <0>         0.1407
     27 H2         -1.2015    3.0805    0.0307 H         1 <0>         0.1371
     28 H3         -1.2091   -1.8224    0.6424 H         1 <0>         0.1421
     29 H4         -3.6936   -1.8671    0.4866 H         1 <0>         0.1410
     30 H5         -4.8458    0.9430    0.0624 H         1 <0>         0.1297
     31 H6         -7.2818    0.7765    0.0023 H         1 <0>         0.4029
     32 H7         -7.5942   -2.5595   -1.0790 H         1 <0>         0.1324
     33 H8        -11.8076   -2.8527   -0.3442 H         1 <0>         0.1403
     34 H9         -9.6311    0.6132    0.9322 H         1 <0>         0.1216
     35 H10         3.2214   -0.5933    0.6789 H         1 <0>         0.1207
     36 H11         2.4213   -0.0235   -0.8086 H         1 <0>         0.0771
     37 H12         2.2374    1.3178    1.9361 H         1 <0>         0.0772
     38 H13         3.2124    1.8999    0.5617 H         1 <0>         0.1203
     39 O6        -13.2575   -1.1558    0.8006 O.co2     1 <0>        -0.7534
     40 O7        -10.8819   -4.8577   -1.5339 O.co2     1 <0>        -0.7564
@<TRIPOS>BOND
     1    1    6 ar
     2    1    2 ar
     3    1   26 1
     4    2    3 ar
     5    2   27 1
     6    3   25 1
     7    3    4 ar
     8    4    5 ar
     9    4   22 1
    10    5    6 ar
    11    5   28 1
    12    6    7 1
    13    7    8 2
    14    7   29 1
    15    8    9 1
    16    8   30 1
    17    9   10 2
    18    9   11 am
    19   11   12 1
    20   11   31 1
    21   12   17 ar
    22   12   13 ar
    23   13   14 ar
    24   13   32 1
    25   14   15 ar
    26   14   20 1
    27   15   16 ar
    28   15   33 1
    29   16   17 ar
    30   16   18 1
    31   17   34 1
    32   18   19 2
    33   18   39 1
    34   20   21 2
    35   20   40 1
    36   22   23 1
    37   23   24 1
    38   23   35 1
    39   23   36 1
    40   24   25 1
    41   24   37 1
    42   24   38 1
@<TRIPOS>MOLECULE
ZINC13421865
   40    41     0     0     0
SMALL
USER_CHARGES
4-[2-(cyclohexylamino)-2-oxo-ethoxy]benzene-1,3-dicarboxylic acid
@<TRIPOS>ATOM
      1 C1         -6.2510   -0.6967    0.0284 C.ar      1 <0>        -0.0411
      2 C2         -4.9887   -0.1479    0.0249 C.ar      1 <0>        -0.2513
      3 C3         -4.8253    1.2317    0.0316 C.ar      1 <0>         0.1463
      4 C4         -5.9507    2.0719    0.0474 C.ar      1 <0>        -0.1635
      5 C5         -7.2281    1.5165    0.0455 C.ar      1 <0>        -0.0018
      6 C6         -7.3799    0.1312    0.0392 C.ar      1 <0>        -0.1747
      7 C7         -8.7301   -0.4629    0.0434 C.2       1 <0>         0.4993
      8 O1         -9.7099    0.2555    0.0527 O.co2     1 <0>        -0.6342
      9 C8         -5.7806    3.5365    0.0607 C.2       1 <0>         0.4938
     10 O2         -4.6653    4.0186    0.0581 O.co2     1 <0>        -0.6151
     11 O3         -3.5807    1.7664    0.0286 O.3       1 <0>        -0.2468
     12 C9         -2.4820    0.8526    0.0185 C.3       1 <0>         0.0343
     13 C10        -1.1873    1.6238    0.0165 C.2       1 <0>         0.5123
     14 O4         -1.2037    2.8365    0.0232 O.2       1 <0>        -0.4903
     15 N1         -0.0111    0.9658    0.0074 N.am      1 <0>        -0.7360
     16 C11         1.2475    1.7155   -0.0006 C.3       1 <0>         0.1481
     17 C12         1.6076    2.0922   -1.4391 C.3       1 <0>        -0.1324
     18 C13         2.9221    2.8752   -1.4475 C.3       1 <0>        -0.1172
     19 C14         4.0350    2.0097   -0.8531 C.3       1 <0>        -0.1198
     20 C15         3.6749    1.6330    0.5854 C.3       1 <0>        -0.1154
     21 C16         2.3605    0.8501    0.5937 C.3       1 <0>        -0.1250
     22 H1         -6.3710   -1.7700    0.0231 H         1 <0>         0.1251
     23 H2         -4.1220   -0.7922    0.0173 H         1 <0>         0.1136
     24 H3         -8.0977    2.1570    0.0535 H         1 <0>         0.1419
     25 H4         -2.5355    0.2301   -0.8747 H         1 <0>         0.0823
     26 H5         -2.5271    0.2204    0.9052 H         1 <0>         0.0824
     27 H6          0.0021   -0.0041    0.0020 H         1 <0>         0.3967
     28 H7          1.1346    2.6215    0.5948 H         1 <0>         0.0878
     29 H8          1.7206    1.1862   -2.0346 H         1 <0>         0.0618
     30 H9          0.8148    2.7088   -1.8626 H         1 <0>         0.0717
     31 H10         2.8092    3.7812   -0.8521 H         1 <0>         0.0649
     32 H11         3.1787    3.1436   -2.4723 H         1 <0>         0.0625
     33 H12         4.9715    2.5675   -0.8591 H         1 <0>         0.0598
     34 H13         4.1480    1.1037   -1.4485 H         1 <0>         0.0606
     35 H14         3.5620    2.5390    1.1808 H         1 <0>         0.0652
     36 H15         4.4678    1.0164    1.0089 H         1 <0>         0.0634
     37 H16         2.1039    0.5817    1.6186 H         1 <0>         0.0686
     38 H17         2.4734   -0.0559   -0.0017 H         1 <0>         0.0663
     39 O5         -8.8769   -1.8023    0.0368 O.co2     1 <0>        -0.7755
     40 O6         -6.8619    4.3402    0.0759 O.co2     1 <0>        -0.7689
@<TRIPOS>BOND
     1    1    6 ar
     2    1    2 ar
     3    1   22 1
     4    2    3 ar
     5    2   23 1
     6    3    4 ar
     7    3   11 1
     8    4    5 ar
     9    4    9 1
    10    5    6 ar
    11    5   24 1
    12    6    7 1
    13    7    8 2
    14    7   39 1
    15    9   10 2
    16    9   40 1
    17   11   12 1
    18   12   13 1
    19   12   25 1
    20   12   26 1
    21   13   14 2
    22   13   15 am
    23   15   16 1
    24   15   27 1
    25   16   21 1
    26   16   17 1
    27   16   28 1
    28   17   18 1
    29   17   29 1
    30   17   30 1
    31   18   19 1
    32   18   31 1
    33   18   32 1
    34   19   20 1
    35   19   33 1
    36   19   34 1
    37   20   21 1
    38   20   35 1
    39   20   36 1
    40   21   37 1
    41   21   38 1
@<TRIPOS>MOLECULE
ZINC27233240
   36    38     0     0     0
SMALL
USER_CHARGES
4-[(E)-[(5-oxo-6-phenyl-2H-1,2,4-triazin-3-yl)hydrazono]methyl]benzoic acid
@<TRIPOS>ATOM
      1 C1         -6.4335   14.3367    0.1187 C.ar      1 <0>        -0.1370
      2 C2         -7.4104   13.6401   -0.5698 C.ar      1 <0>        -0.1318
      3 C3         -7.3984   12.2603   -0.5828 C.ar      1 <0>        -0.1041
      4 C4         -6.3988   11.5682    0.0999 C.ar      1 <0>         0.0172
      5 C5         -5.4201   12.2757    0.7968 C.ar      1 <0>        -0.0861
      6 C6         -5.4389   13.6555    0.7974 C.ar      1 <0>        -0.1285
      7 C7         -6.3802   10.0865    0.0898 C.ar      1 <0>        -0.0689
      8 C8         -5.1042    9.3519    0.0797 C.ar      1 <0>         0.5068
      9 O1         -4.0442    9.9576    0.0788 O.3       1 <0>        -0.5769
     10 N1         -5.1176    8.0145    0.0766 N.ar      1 <0>        -0.6584
     11 C9         -6.2585    7.3537    0.0721 C.ar      1 <0>         0.5711
     12 N2         -7.4512    8.0019    0.0808 N.ar      1 <0>        -0.4980
     13 N3         -7.5027    9.4022    0.0901 N.ar      1 <0>        -0.1967
     14 N4         -6.2399    5.9819    0.0641 N.pl3     1 <0>        -0.5544
     15 N5         -5.0172    5.2980    0.0550 N.2       1 <0>        -0.1833
     16 C10        -4.9996    3.9994    0.0475 C.2       1 <0>         0.0663
     17 C11        -3.7143    3.2804    0.0380 C.ar      1 <0>        -0.0482
     18 C12        -3.6952    1.8816    0.0298 C.ar      1 <0>        -0.1154
     19 C13        -2.5032    1.2151    0.0205 C.ar      1 <0>        -0.0950
     20 C14        -1.3017    1.9309    0.0187 C.ar      1 <0>        -0.1081
     21 C15        -1.3205    3.3292    0.0323 C.ar      1 <0>        -0.0826
     22 C16        -2.5122    3.9962    0.0366 C.ar      1 <0>        -0.0978
     23 C17        -0.0144    1.2108    0.0087 C.2       1 <0>         0.4898
     24 O2          0.0021   -0.0041    0.0020 O.co2     1 <0>        -0.6380
     25 O3          1.1433    1.9004    0.0013 O.co2     1 <0>        -0.7561
     26 H1         -6.4470   15.4166    0.1260 H         1 <0>         0.1113
     27 H2         -8.1840   14.1773   -1.0985 H         1 <0>         0.1138
     28 H3         -8.1614   11.7176   -1.1209 H         1 <0>         0.1207
     29 H4         -4.6459   11.7449    1.3310 H         1 <0>         0.1310
     30 H5         -4.6788   14.2047    1.3332 H         1 <0>         0.1157
     31 H6         -7.1850    5.4190    0.0648 H         1 <0>         0.4057
     32 H7         -5.9447    3.4365    0.0482 H         1 <0>         0.1097
     33 H8         -4.6230    1.3288    0.0312 H         1 <0>         0.1173
     34 H9         -2.4884    0.1353    0.0142 H         1 <0>         0.1255
     35 H10        -0.3925    3.8817    0.0350 H         1 <0>         0.1307
     36 H11        -2.5267    5.0761    0.0429 H         1 <0>         0.1328
@<TRIPOS>BOND
     1    1    6 ar
     2    1    2 ar
     3    1   26 1
     4    2    3 ar
     5    2   27 1
     6    3    4 ar
     7    3   28 1
     8    4    5 ar
     9    4    7 1
    10    5    6 ar
    11    5   29 1
    12    6   30 1
    13    7   13 ar
    14    7    8 ar
    15    8    9 1
    16    8   10 ar
    17   10   11 ar
    18   11   12 ar
    19   11   14 1
    20   12   13 ar
    21   14   15 1
    22   14   31 1
    23   15   16 2
    24   16   17 1
    25   16   32 1
    26   17   22 ar
    27   17   18 ar
    28   18   19 ar
    29   18   33 1
    30   19   20 ar
    31   19   34 1
    32   20   21 ar
    33   20   23 1
    34   21   22 ar
    35   21   35 1
    36   22   36 1
    37   23   24 2
    38   23   25 1
@<TRIPOS>MOLECULE
ZINC13319277
   38    40     0     0     0
SMALL
USER_CHARGES

@<TRIPOS>ATOM
      1 C1         -0.0184    1.5028    0.0103 C.3       1 <0>        -0.0980
      2 C2          0.0021   -0.0041    0.0020 C.ar      1 <0>        -0.1537
      3 C3          0.0057   -0.6871   -1.2041 C.ar      1 <0>        -0.0918
      4 C4          0.0239   -2.0671   -1.2259 C.ar      1 <0>        -0.2341
      5 C5          0.0387   -2.7815   -0.0369 C.ar      1 <0>         0.1513
      6 C6          0.0356   -2.0944    1.1864 C.ar      1 <0>        -0.1533
      7 C7          0.0228   -0.6956    1.1927 C.ar      1 <0>        -0.0491
      8 C8          0.0513   -2.8405    2.4548 C.2       1 <0>         0.5120
      9 O1          0.0485   -2.2374    3.5192 O.co2     1 <0>        -0.7041
     10 O2          0.0670   -4.0637    2.4448 O.co2     1 <0>        -0.6380
     11 O3          0.0557   -4.1373   -0.0568 O.3       1 <0>        -0.2263
     12 C9          0.0573   -4.7673   -1.3394 C.3       1 <0>         0.1063
     13 C10         0.0770   -6.2640   -1.1639 C.2       1 <0>         0.3481
     14 N1          0.0869   -7.0432   -2.2767 N.am      1 <0>        -0.6514
     15 H1          0.0812   -6.6286   -3.1536 H         1 <0>         0.4078
     16 C11         0.1052   -8.3924   -2.1730 C.2       1 <0>         0.5594
     17 O4          0.1146   -9.1023   -3.1614 O.2       1 <0>        -0.5367
     18 C12         0.1137   -8.9683   -0.8170 C.ar      1 <0>        -0.2031
     19 C13         0.1328  -10.3455   -0.6045 C.ar      1 <0>        -0.0731
     20 C14         0.1405  -10.8371    0.6698 C.ar      1 <0>        -0.0944
     21 C15         0.1293   -9.9681    1.7687 C.ar      1 <0>        -0.0966
     22 C16         0.1098   -8.5908    1.5780 C.ar      1 <0>        -0.0538
     23 C17         0.1022   -8.0783    0.2792 C.ar      1 <0>         0.1282
     24 N2          0.0890   -6.7423    0.0429 N.2       1 <0>        -0.4316
     25 C18         0.1379  -10.5191    3.1403 C.2       1 <0>         0.5203
     26 O5          0.1547  -11.7293    3.3128 O.co2     1 <0>        -0.6891
     27 O6          0.1282   -9.7647    4.1023 O.co2     1 <0>        -0.6688
     28 H2          1.0042    1.8801    0.0026 H         1 <0>         0.0579
     29 H3         -0.5455    1.8639   -0.8728 H         1 <0>         0.0542
     30 H4         -0.5286    1.8543    0.9071 H         1 <0>         0.0601
     31 H5         -0.0062   -0.1359   -2.1328 H         1 <0>         0.1109
     32 H6          0.0262   -2.5915   -2.1700 H         1 <0>         0.1175
     33 H7          0.0244   -0.1589    2.1299 H         1 <0>         0.1301
     34 H8         -0.8391   -4.4776   -1.8877 H         1 <0>         0.0828
     35 H9          0.9407   -4.4552   -1.8964 H         1 <0>         0.0827
     36 H10         0.1412  -11.0227   -1.4457 H         1 <0>         0.1276
     37 H11         0.1550  -11.9048    0.8316 H         1 <0>         0.1352
     38 H12         0.1005   -7.9234    2.4271 H         1 <0>         0.1544
@<TRIPOS>BOND
     1    1    2 1
     2    1   28 1
     3    1   29 1
     4    1   30 1
     5    2    7 ar
     6    2    3 ar
     7    3    4 ar
     8    3   31 1
     9    4    5 ar
    10    4   32 1
    11    5    6 ar
    12    5   11 1
    13    6    7 ar
    14    6    8 1
    15    7   33 1
    16    8    9 2
    17    8   10 1
    18   11   12 1
    19   12   13 1
    20   12   34 1
    21   12   35 1
    22   13   24 2
    23   13   14 1
    24   14   15 1
    25   14   16 am
    26   16   17 2
    27   16   18 1
    28   18   23 ar
    29   18   19 ar
    30   19   20 ar
    31   19   36 1
    32   20   21 ar
    33   20   37 1
    34   21   22 ar
    35   21   25 1
    36   22   23 ar
    37   22   38 1
    38   23   24 1
    39   25   26 2
    40   25   27 1
@<TRIPOS>MOLECULE
ZINC66508976
   43    44     0     0     0
SMALL
USER_CHARGES

@<TRIPOS>ATOM
      1 C1         -4.3501    2.1683    3.3306 C.3       1 <0>        -0.1484
      2 C2         -4.7073    0.6957    3.5421 C.3       1 <0>        -0.1200
      3 C3         -4.3665   -0.0982    2.2793 C.3       1 <0>        -0.1312
      4 C4         -4.7237   -1.5708    2.4908 C.3       1 <0>         0.1410
      5 N1         -4.3974   -2.3309    1.2817 N.pl3     1 <0>        -0.7505
      6 C5         -4.6308   -3.6725    1.2368 C.2       1 <0>         0.5629
      7 O1         -5.1615   -4.2999    2.3041 O.3       1 <0>        -0.6970
      8 C6         -4.3205   -4.3954    0.0869 C.2       1 <0>        -0.4332
      9 C7         -3.7564   -3.7284   -1.0478 C.1       1 <0>         0.3263
     10 N2         -3.3088   -3.1992   -1.9479 N.1       1 <0>        -0.6267
     11 C8         -4.5711   -5.8360    0.0386 C.2       1 <0>         0.4826
     12 O2         -3.5383   -6.6978   -0.1050 O.3       1 <0>        -0.7211
     13 C9         -5.8598   -6.3153    0.1395 C.2       1 <0>        -0.5035
     14 C10        -6.2678   -7.7700    0.2413 C.3       1 <0>        -0.0272
     15 C11        -7.8042   -7.7136    0.3289 C.3       1 <0>         0.1114
     16 N3         -8.1370   -6.2860    0.2723 N.am      1 <0>        -0.5704
     17 C12        -7.0266   -5.5463    0.1726 C.2       1 <0>         0.5643
     18 O3         -7.0321   -4.3284    0.1136 O.2       1 <0>        -0.5606
     19 C13        -9.4359   -5.7690    0.3214 C.ar      1 <0>         0.2285
     20 C14        -9.6513   -4.4099    0.1339 C.ar      1 <0>        -0.1595
     21 C15       -10.9347   -3.9021    0.1828 C.ar      1 <0>        -0.0789
     22 C16       -12.0056   -4.7463    0.4184 C.ar      1 <0>        -0.1007
     23 C17       -11.7938   -6.1010    0.6060 C.ar      1 <0>        -0.0791
     24 C18       -10.5131   -6.6149    0.5520 C.ar      1 <0>        -0.1893
     25 Cl1       -13.6176   -4.1048    0.4793 Cl        1 <0>        -0.1105
     26 H1         -4.5928    2.7339    4.2302 H         1 <0>         0.0476
     27 H2         -3.2839    2.2573    3.1221 H         1 <0>         0.0507
     28 H3         -4.9191    2.5629    2.4888 H         1 <0>         0.0515
     29 H4         -4.1383    0.3011    4.3839 H         1 <0>         0.0610
     30 H5         -5.7734    0.6067    3.7506 H         1 <0>         0.0623
     31 H6         -4.9355    0.2964    1.4375 H         1 <0>         0.0612
     32 H7         -3.3004   -0.0092    2.0708 H         1 <0>         0.0595
     33 H8         -4.1547   -1.9654    3.3326 H         1 <0>         0.0446
     34 H9         -5.7899   -1.6597    2.6993 H         1 <0>         0.0485
     35 H10        -4.0153   -1.8791    0.5131 H         1 <0>         0.3799
     36 H11        -5.9547   -8.3186   -0.6470 H         1 <0>         0.0392
     37 H12        -5.8493   -8.2232    1.1399 H         1 <0>         0.0406
     38 H13        -8.2511   -8.2403   -0.5143 H         1 <0>         0.0525
     39 H14        -8.1458   -8.1450    1.2698 H         1 <0>         0.0528
     40 H15        -8.8158   -3.7505   -0.0497 H         1 <0>         0.1731
     41 H16       -11.1027   -2.8452    0.0375 H         1 <0>         0.1225
     42 H17       -12.6313   -6.7576    0.7901 H         1 <0>         0.1200
     43 H18       -10.3489   -7.6730    0.6933 H         1 <0>         0.1233
@<TRIPOS>BOND
     1    1    2 1
     2    1   26 1
     3    1   27 1
     4    1   28 1
     5    2    3 1
     6    2   29 1
     7    2   30 1
     8    3    4 1
     9    3   31 1
    10    3   32 1
    11    4    5 1
    12    4   33 1
    13    4   34 1
    14    5    6 1
    15    5   35 1
    16    6    7 1
    17    6    8 2
    18    8    9 1
    19    8   11 1
    20    9   10 3
    21   11   12 1
    22   11   13 2
    23   13   17 1
    24   13   14 1
    25   14   15 1
    26   14   36 1
    27   14   37 1
    28   15   16 1
    29   15   38 1
    30   15   39 1
    31   16   17 am
    32   16   19 1
    33   17   18 2
    34   19   24 ar
    35   19   20 ar
    36   20   21 ar
    37   20   40 1
    38   21   22 ar
    39   21   41 1
    40   22   23 ar
    41   22   25 1
    42   23   24 ar
    43   23   42 1
    44   24   43 1
@<TRIPOS>MOLECULE
ZINC22378442
   50    50     0     0     0
SMALL
USER_CHARGES
4-[[2-(3-methoxypropylamino)-2-oxo-ethyl]-methylsulfonyl-amino]-N,N-dimethyl-benzamide
@<TRIPOS>ATOM
      1 C1          1.1537   -0.8699   -0.0002 C.3       1 <0>         0.0756
      2 N1         -0.0104    0.0136    0.1018 N.am      1 <0>        -0.6129
      3 C2         -1.3616   -0.5371   -0.0297 C.3       1 <0>         0.0167
      4 C3          0.1616    1.3329    0.3167 C.2       1 <0>         0.5586
      5 O1          1.2757    1.7757    0.5196 O.2       1 <0>        -0.5358
      6 C4         -1.0026    2.2390    0.3118 C.ar      1 <0>        -0.1309
      7 C5         -2.1606    1.8877   -0.3881 C.ar      1 <0>        -0.1054
      8 C6         -3.2471    2.7322   -0.3856 C.ar      1 <0>        -0.0902
      9 C7         -3.1895    3.9410    0.3025 C.ar      1 <0>         0.1594
     10 C8         -2.0356    4.2963    0.9957 C.ar      1 <0>        -0.1295
     11 C9         -0.9480    3.4533    1.0022 C.ar      1 <0>        -0.0534
     12 N2         -4.2868    4.7950    0.2979 N.pl3     1 <0>        -0.9322
     13 C10        -4.1569    6.1517   -0.2396 C.3       1 <0>         0.1000
     14 C11        -4.3564    6.1215   -1.7330 C.2       1 <0>         0.4995
     15 O2         -4.5846    5.0704   -2.2932 O.2       1 <0>        -0.5218
     16 N3         -4.2812    7.2627   -2.4461 N.am      1 <0>        -0.7401
     17 C12        -4.4751    7.2335   -3.8979 C.3       1 <0>         0.1250
     18 C13        -4.3395    8.6503   -4.4592 C.3       1 <0>        -0.1304
     19 C14        -4.5420    8.6197   -5.9755 C.3       1 <0>         0.0614
     20 O3         -4.4153    9.9430   -6.4998 O.3       1 <0>        -0.3923
     21 C15        -4.5880   10.0261   -7.9158 C.3       1 <0>         0.0285
     22 S1         -5.7405    4.2786    0.8999 S.o2      1 <0>         2.5992
     23 O4         -6.7168    4.9664    0.1299 O.2       1 <0>        -0.9389
     24 O5         -5.6619    2.8601    0.8702 O.2       1 <0>        -0.9368
     25 C16        -5.7699    4.8669    2.6156 C.3       1 <0>        -0.6744
     26 H1          2.0738   -0.2798    0.1234 H         1 <0>         0.0894
     27 H2          1.1597   -1.3560   -0.9869 H         1 <0>         0.0628
     28 H3          1.1017   -1.6372    0.7863 H         1 <0>         0.0625
     29 H4         -2.0992    0.2723    0.0745 H         1 <0>         0.1274
     30 H5         -1.5291   -1.2891    0.7554 H         1 <0>         0.0650
     31 H6         -1.4711   -1.0080   -1.0178 H         1 <0>         0.0688
     32 H7         -2.2041    0.9524   -0.9264 H         1 <0>         0.1652
     33 H8         -4.1439    2.4590   -0.9219 H         1 <0>         0.1426
     34 H9         -1.9941    5.2345    1.5292 H         1 <0>         0.1363
     35 H10        -0.0533    3.7294    1.5404 H         1 <0>         0.1401
     36 H11        -4.9165    6.8020    0.2188 H         1 <0>         0.1180
     37 H12        -3.1541    6.5421   -0.0114 H         1 <0>         0.1188
     38 H13        -4.0742    8.2161   -1.9379 H         1 <0>         0.4230
     39 H14        -3.7154    6.5833   -4.3563 H         1 <0>         0.0686
     40 H15        -5.4778    6.8431   -4.1261 H         1 <0>         0.0700
     41 H16        -5.0992    9.3005   -4.0009 H         1 <0>         0.0803
     42 H17        -3.3368    9.0407   -4.2310 H         1 <0>         0.0796
     43 H18        -3.7823    7.9694   -6.4338 H         1 <0>         0.0533
     44 H19        -5.5448    8.2293   -6.2037 H         1 <0>         0.0538
     45 H20        -4.4759   11.0718   -8.2381 H         1 <0>         0.0892
     46 H21        -5.5918    9.6652   -8.1845 H         1 <0>         0.0435
     47 H22        -3.8293    9.4052   -8.4148 H         1 <0>         0.0433
     48 H23        -6.7134    4.5618    3.0917 H         1 <0>         0.1352
     49 H24        -5.6907    5.9640    2.6284 H         1 <0>         0.1310
     50 H25        -4.9234    4.4317    3.1670 H         1 <0>         0.1335
@<TRIPOS>BOND
     1    1    2 1
     2    1   26 1
     3    1   27 1
     4    1   28 1
     5    2    3 1
     6    2    4 am
     7    3   29 1
     8    3   30 1
     9    3   31 1
    10    4    5 2
    11    4    6 1
    12    6   11 ar
    13    6    7 ar
    14    7    8 ar
    15    7   32 1
    16    8    9 ar
    17    8   33 1
    18    9   10 ar
    19    9   12 1
    20   10   11 ar
    21   10   34 1
    22   11   35 1
    23   12   13 1
    24   12   22 1
    25   13   14 1
    26   13   36 1
    27   13   37 1
    28   14   15 2
    29   14   16 am
    30   16   17 1
    31   16   38 1
    32   17   18 1
    33   17   39 1
    34   17   40 1
    35   18   19 1
    36   18   41 1
    37   18   42 1
    38   19   20 1
    39   19   43 1
    40   19   44 1
    41   20   21 1
    42   21   45 1
    43   21   46 1
    44   21   47 1
    45   22   23 2
    46   22   24 2
    47   22   25 1
    48   25   48 1
    49   25   49 1
    50   25   50 1
@<TRIPOS>MOLECULE
ZINC44729121
   49    49     0     0     0
SMALL
USER_CHARGES

@<TRIPOS>ATOM
      1 C1          1.7142    1.0203    0.9908 C.3       1 <0>        -0.1435
      2 C2          1.1009   -0.3363    0.6382 C.3       1 <0>        -0.1000
      3 H1          1.6031   -0.7453   -0.2385 H         1 <0>         0.1200
      4 C3         -0.3886   -0.1597    0.3366 C.3       1 <0>        -0.0992
      5 C4         -1.0019   -1.5164   -0.0160 C.3       1 <0>        -0.0290
      6 C5         -0.8306   -2.4756    1.1636 C.3       1 <0>        -0.1053
      7 C6          0.6589   -2.6522    1.4652 C.3       1 <0>        -0.0502
      8 C7          1.2722   -1.2955    1.8178 C.3       1 <0>        -0.1079
      9 C8          1.3639   -3.2262    0.2346 C.3       1 <0>        -0.1904
     10 C9          0.8302   -3.6114    2.6448 C.3       1 <0>        -0.1403
     11 C10        -0.3076   -2.0818   -1.2281 C.2       1 <0>         0.5117
     12 O1          0.5429   -1.4257   -1.8048 O.co2     1 <0>        -0.6381
     13 O2         -0.5964   -3.1953   -1.6320 O.co2     1 <0>        -0.6554
     14 N1         -2.4321   -1.3468   -0.3055 N.4       1 <0>        -0.4825
     15 C11        -2.5952   -0.4576   -1.4634 C.3       1 <0>         0.0026
     16 C12        -4.0744   -0.3874   -1.8481 C.3       1 <0>         0.0341
     17 O3         -4.8128    0.2288   -0.7912 O.3       1 <0>        -0.3915
     18 C13        -6.2133    0.3439   -1.0509 C.3       1 <0>         0.0658
     19 C14        -6.8996    1.0142    0.1410 C.3       1 <0>         0.0597
     20 O4         -6.4273    2.3568    0.2694 O.3       1 <0>        -0.3853
     21 C15        -7.0088    3.0758    1.3588 C.3       1 <0>         0.0299
     22 H2          2.7754    0.8945    1.2056 H         1 <0>         0.0573
     23 H3          1.5922    1.7036    0.1504 H         1 <0>         0.0558
     24 H4          1.2120    1.4292    1.8675 H         1 <0>         0.0475
     25 H5         -0.8909    0.2492    1.2134 H         1 <0>         0.0613
     26 H6         -0.5107    0.5236   -0.5037 H         1 <0>         0.0801
     27 H7         -1.3328   -2.0666    2.0404 H         1 <0>         0.0669
     28 H8         -1.2675   -3.4421    0.9124 H         1 <0>         0.0835
     29 H9          2.3334   -1.4214    2.0326 H         1 <0>         0.0677
     30 H10         0.7700   -0.8866    2.6945 H         1 <0>         0.0568
     31 H11         1.5253   -2.4325   -0.4949 H         1 <0>         0.1045
     32 H12         2.3241   -3.6489    0.5301 H         1 <0>         0.0428
     33 H13         0.7444   -4.0061   -0.2082 H         1 <0>         0.0759
     34 H14         0.3933   -4.5779    2.3936 H         1 <0>         0.0564
     35 H15         1.8914   -3.7372    2.8597 H         1 <0>         0.0596
     36 H16         0.3280   -3.2024    3.5215 H         1 <0>         0.0512
     37 H17        -2.8425   -2.2454   -0.5111 H         1 <0>         0.4225
     38 H18        -2.2384    0.5402   -1.2083 H         1 <0>         0.1349
     39 H19        -2.0193   -0.8457   -2.3035 H         1 <0>         0.1474
     40 H20        -4.1853    0.2002   -2.7595 H         1 <0>         0.0939
     41 H21        -4.4541   -1.3951   -2.0171 H         1 <0>         0.0726
     42 H22        -6.3685    0.9467   -1.9457 H         1 <0>         0.0676
     43 H23        -6.6373   -0.6486   -1.2033 H         1 <0>         0.0721
     44 H24        -7.9779    1.0220   -0.0179 H         1 <0>         0.0698
     45 H25        -6.6704    0.4598    1.0511 H         1 <0>         0.0586
     46 H26        -8.0894    3.1264    1.2252 H         1 <0>         0.0431
     47 H27        -6.7819    2.5642    2.2942 H         1 <0>         0.0427
     48 H28        -6.5987    4.0853    1.3880 H         1 <0>         0.0892
     49 H29        -2.8920   -0.9426    0.4964 H         1 <0>         0.4131
@<TRIPOS>BOND
     1    1    2 1
     2    1   22 1
     3    1   23 1
     4    1   24 1
     5    2    3 1
     6    2    8 1
     7    2    4 1
     8    4    5 1
     9    4   25 1
    10    4   26 1
    11    5    6 1
    12    5   11 1
    13    5   14 1
    14    6    7 1
    15    6   27 1
    16    6   28 1
    17    7    8 1
    18    7    9 1
    19    7   10 1
    20    8   29 1
    21    8   30 1
    22    9   31 1
    23    9   32 1
    24    9   33 1
    25   10   34 1
    26   10   35 1
    27   10   36 1
    28   11   12 2
    29   11   13 1
    30   14   15 1
    31   14   37 1
    32   14   49 1
    33   15   16 1
    34   15   38 1
    35   15   39 1
    36   16   17 1
    37   16   40 1
    38   16   41 1
    39   17   18 1
    40   18   19 1
    41   18   42 1
    42   18   43 1
    43   19   20 1
    44   19   44 1
    45   19   45 1
    46   20   21 1
    47   21   46 1
    48   21   47 1
    49   21   48 1
@<TRIPOS>MOLECULE
ZINC55353036
   44    45     0     0     0
SMALL
USER_CHARGES

@<TRIPOS>ATOM
      1 C1         -0.0188    1.5368    0.0105 C.3       1 <0>        -0.1578
      2 C2          1.4767    1.9366   -0.0016 C.3       1 <0>        -0.1503
      3 C3          2.1612    0.6496    0.5251 C.3       1 <0>         0.0804
      4 H1          2.1118    0.6064    1.6131 H         1 <0>         0.0776
      5 O1          1.3788   -0.4124   -0.0619 O.3       1 <0>        -0.3715
      6 C4          0.0021   -0.0041    0.0020 C.3       1 <0>         0.0461
      7 C5          3.6139    0.5790    0.0502 C.3       1 <0>        -0.1272
      8 C6          4.2995   -0.6328    0.6847 C.3       1 <0>         0.1255
      9 N1          5.6905   -0.7004    0.2300 N.pl3     1 <0>        -0.6859
     10 C7          6.4933   -1.6929    0.6623 C.2       1 <0>         0.5600
     11 S1          5.8876   -2.8746    1.7428 S.2       1 <0>        -0.6313
     12 N2          7.7730   -1.7551    0.2439 N.pl3     1 <0>        -0.6877
     13 C8          8.6456   -2.8340    0.7138 C.3       1 <0>         0.1275
     14 C9         10.0349   -2.6731    0.0933 C.3       1 <0>         0.0429
     15 N3         10.9099   -3.7549    0.5645 N.3       1 <0>        -0.5301
     16 C10        11.1630   -3.6369    2.0078 C.3       1 <0>         0.0108
     17 C11        12.0275   -4.8142    2.4668 C.3       1 <0>         0.0626
     18 O2         13.2376   -4.8361    1.7049 O.3       1 <0>        -0.3850
     19 C12        13.0281   -4.9509    0.2948 C.3       1 <0>         0.0628
     20 C13        12.1738   -3.7750   -0.1862 C.3       1 <0>         0.0187
     21 H2         -0.5053    1.9068    0.9130 H         1 <0>         0.0769
     22 H3         -0.5224    1.9164   -0.8785 H         1 <0>         0.0783
     23 H4          1.8093    2.1678   -1.0136 H         1 <0>         0.0782
     24 H5          1.6602    2.7768    0.6681 H         1 <0>         0.0819
     25 H6         -0.4558   -0.3860    0.9145 H         1 <0>         0.0613
     26 H7         -0.5361   -0.3772   -0.8693 H         1 <0>         0.0849
     27 H8          3.6370    0.4824   -1.0353 H         1 <0>         0.0798
     28 H9          4.1373    1.4884    0.3453 H         1 <0>         0.0835
     29 H10         4.2764   -0.5362    1.7702 H         1 <0>         0.0875
     30 H11         3.7762   -1.5422    0.3896 H         1 <0>         0.0960
     31 H12         6.0337   -0.0308   -0.3823 H         1 <0>         0.3958
     32 H13         8.1162   -1.0856   -0.3683 H         1 <0>         0.3955
     33 H14         8.7255   -2.7896    1.8000 H         1 <0>         0.0882
     34 H15         8.2253   -3.7956    0.4194 H         1 <0>         0.0982
     35 H16         9.9550   -2.7175   -0.9929 H         1 <0>         0.0833
     36 H17        10.4552   -1.7115    0.3877 H         1 <0>         0.0421
     37 H18        11.6846   -2.7015    2.2106 H         1 <0>         0.0451
     38 H19        10.2152   -3.6498    2.5459 H         1 <0>         0.0944
     39 H20        12.2653   -4.7005    3.5244 H         1 <0>         0.1011
     40 H21        11.4839   -5.7464    2.3134 H         1 <0>         0.0638
     41 H22        13.9896   -4.9361   -0.2184 H         1 <0>         0.1002
     42 H23        12.5136   -5.8871    0.0783 H         1 <0>         0.0627
     43 H24        11.9637   -3.8887   -1.2497 H         1 <0>         0.0884
     44 H25        12.7115   -2.8418   -0.0185 H         1 <0>         0.0449
@<TRIPOS>BOND
     1    1    6 1
     2    1    2 1
     3    1   21 1
     4    1   22 1
     5    2    3 1
     6    2   23 1
     7    2   24 1
     8    3    4 1
     9    3    5 1
    10    3    7 1
    11    5    6 1
    12    6   25 1
    13    6   26 1
    14    7    8 1
    15    7   27 1
    16    7   28 1
    17    8    9 1
    18    8   29 1
    19    8   30 1
    20    9   10 1
    21    9   31 1
    22   10   11 2
    23   10   12 1
    24   12   13 1
    25   12   32 1
    26   13   14 1
    27   13   33 1
    28   13   34 1
    29   14   15 1
    30   14   35 1
    31   14   36 1
    32   15   20 1
    33   15   16 1
    34   16   17 1
    35   16   37 1
    36   16   38 1
    37   17   18 1
    38   17   39 1
    39   17   40 1
    40   18   19 1
    41   19   20 1
    42   19   41 1
    43   19   42 1
    44   20   43 1
    45   20   44 1
@<TRIPOS>MOLECULE
ZINC64065647
   51    52     0     0     0
SMALL
USER_CHARGES

@<TRIPOS>ATOM
      1 C1         -0.0173    1.4248    0.0099 C.3       1 <0>         0.0234
      2 O1          0.0021   -0.0041    0.0020 O.3       1 <0>        -0.3122
      3 C2          0.6049   -0.6063   -1.0542 C.ar      1 <0>         0.1580
      4 C3          1.1723    0.1659   -2.0612 C.ar      1 <0>        -0.2190
      5 C4          1.7849   -0.4413   -3.1346 C.ar      1 <0>        -0.0138
      6 C5          1.8362   -1.8357   -3.2104 C.ar      1 <0>        -0.1794
      7 C6          1.2650   -2.6083   -2.1958 C.ar      1 <0>        -0.0425
      8 C7          0.6585   -1.9935   -1.1233 C.ar      1 <0>        -0.1596
      9 C8          2.4914   -2.4906   -4.3594 C.2       1 <0>         0.5688
     10 O2          2.9875   -1.8168   -5.2416 O.2       1 <0>        -0.5394
     11 N1          2.5399   -3.8356   -4.4308 N.am      1 <0>        -0.7183
     12 C9          3.1902   -4.4857   -5.5713 C.3       1 <0>         0.1018
     13 C10         3.1080   -5.9819   -5.4106 C.2       1 <0>         0.5134
     14 O3          2.5601   -6.4582   -4.4391 O.2       1 <0>        -0.5357
     15 N2          3.6434   -6.7905   -6.3465 N.am      1 <0>        -0.6098
     16 C11         4.3176   -6.2337   -7.5291 C.3       1 <0>         0.1071
     17 C12         5.6958   -6.8909   -7.6583 C.3       1 <0>         0.0407
     18 N3          5.5397   -8.3516   -7.6626 N.3       1 <0>        -0.5376
     19 C13         4.9766   -8.8310   -6.3934 C.3       1 <0>         0.0335
     20 C14         3.5743   -8.2533   -6.2093 C.3       1 <0>         0.1167
     21 C15         6.8162   -9.0166   -7.9568 C.3       1 <0>         0.0666
     22 C16         6.5707  -10.5072   -8.1988 C.3       1 <0>        -0.1122
     23 C17         7.8802  -11.1894   -8.5006 C.2       1 <0>         0.4613
     24 O4          8.9046  -10.5490   -8.5201 O.2       1 <0>        -0.5067
     25 O5          7.9084  -12.5084   -8.7478 O.3       1 <0>        -0.3541
     26 C18         9.1841  -13.0891   -9.0263 C.3       1 <0>         0.0328
     27 H1          1.0053    1.8021    0.0021 H         1 <0>         0.0596
     28 H2         -0.5445    1.7859   -0.8732 H         1 <0>         0.0597
     29 H3         -0.5275    1.7763    0.9067 H         1 <0>         0.1043
     30 H4          1.1322    1.2435   -2.0018 H         1 <0>         0.1371
     31 H5          2.2249    0.1593   -3.9169 H         1 <0>         0.1406
     32 H6          1.3026   -3.6863   -2.2508 H         1 <0>         0.1351
     33 H7          0.2204   -2.5899   -0.3367 H         1 <0>         0.1396
     34 H8          2.1441   -4.3732   -3.7271 H         1 <0>         0.4115
     35 H9          2.6877   -4.1910   -6.4925 H         1 <0>         0.1026
     36 H10         4.2361   -4.1819   -5.6147 H         1 <0>         0.1009
     37 H11         3.7266   -6.4441   -8.4205 H         1 <0>         0.0867
     38 H12         4.4352   -5.1566   -7.4103 H         1 <0>         0.0939
     39 H13         6.1648   -6.5725   -8.5893 H         1 <0>         0.0952
     40 H14         6.3206   -6.5943   -6.8159 H         1 <0>         0.0442
     41 H15         4.9240   -9.9197   -6.4070 H         1 <0>         0.0935
     42 H16         5.6114   -8.5074   -5.5685 H         1 <0>         0.0429
     43 H17         3.2007   -8.5108   -5.2182 H         1 <0>         0.0992
     44 H18         2.9104   -8.6616   -6.9713 H         1 <0>         0.0806
     45 H19         7.2606   -8.5722   -8.8474 H         1 <0>         0.0894
     46 H20         7.4937   -8.8924   -7.1120 H         1 <0>         0.0476
     47 H21         6.1263  -10.9516   -7.3083 H         1 <0>         0.1071
     48 H22         5.8932  -10.6314   -9.0436 H         1 <0>         0.1182
     49 H23         9.0653  -14.1573   -9.2074 H         1 <0>         0.1038
     50 H24         9.6134  -12.6163   -9.9096 H         1 <0>         0.0618
     51 H25         9.8466  -12.9365   -8.1743 H         1 <0>         0.0611
@<TRIPOS>BOND
     1    1    2 1
     2    1   27 1
     3    1   28 1
     4    1   29 1
     5    2    3 1
     6    3    8 ar
     7    3    4 ar
     8    4    5 ar
     9    4   30 1
    10    5    6 ar
    11    5   31 1
    12    6    7 ar
    13    6    9 1
    14    7    8 ar
    15    7   32 1
    16    8   33 1
    17    9   10 2
    18    9   11 am
    19   11   12 1
    20   11   34 1
    21   12   13 1
    22   12   35 1
    23   12   36 1
    24   13   14 2
    25   13   15 am
    26   15   20 1
    27   15   16 1
    28   16   17 1
    29   16   37 1
    30   16   38 1
    31   17   18 1
    32   17   39 1
    33   17   40 1
    34   18   19 1
    35   18   21 1
    36   19   20 1
    37   19   41 1
    38   19   42 1
    39   20   43 1
    40   20   44 1
    41   21   22 1
    42   21   45 1
    43   21   46 1
    44   22   23 1
    45   22   47 1
    46   22   48 1
    47   23   24 2
    48   23   25 1
    49   25   26 1
    50   26   49 1
    51   26   50 1
    52   26   51 1
@<TRIPOS>MOLECULE
ZINC67629824
   51    53     0     0     0
SMALL
USER_CHARGES

@<TRIPOS>ATOM
      1 C1         -0.0164    1.3598    0.0095 C.2       1 <0>        -0.0169
      2 C2          1.1971    2.0617    0.0017 C.2       1 <0>        -0.2316
      3 C3          2.3691    1.3848   -0.0131 C.2       1 <0>         0.1308
      4 N1          2.3855    0.0273   -0.0206 N.am      1 <0>        -0.4968
      5 C4          1.2367   -0.6752   -0.0138 C.2       1 <0>         0.5111
      6 O1          1.2678   -1.8954   -0.0211 O.2       1 <0>        -0.5506
      7 C5          0.0021   -0.0041    0.0020 C.2       1 <0>        -0.2440
      8 C6          3.6676   -0.6813   -0.0366 C.3       1 <0>         0.0903
      9 C7          4.1277   -0.9358    1.4002 C.3       1 <0>        -0.1308
     10 C8          5.4667   -1.6759    1.3834 C.3       1 <0>        -0.1283
     11 C9          5.9268   -1.9303    2.8203 C.3       1 <0>         0.1195
     12 N2          7.2089   -2.6389    2.8042 N.am      1 <0>        -0.7274
     13 C10         7.8098   -2.9712    3.9640 C.2       1 <0>         0.5579
     14 O2          7.2880   -2.6828    5.0232 O.2       1 <0>        -0.5313
     15 C11         9.1037   -3.6863    3.9478 C.ar      1 <0>        -0.1262
     16 C12         9.7084   -4.0138    2.7332 C.ar      1 <0>        -0.0894
     17 C13        10.9160   -4.6807    2.7251 C.ar      1 <0>        -0.1028
     18 C14        11.5274   -5.0254    3.9174 C.ar      1 <0>        -0.0932
     19 C15        10.9331   -4.7042    5.1249 C.ar      1 <0>        -0.1021
     20 C16         9.7287   -4.0319    5.1470 C.ar      1 <0>        -0.0611
     21 C17        12.8463   -5.7544    3.9009 C.3       1 <0>         0.1360
     22 N3         13.9419   -4.7817    3.9023 N.am      1 <0>        -0.5715
     23 C18        14.4718   -4.2857    2.7774 C.2       1 <0>         0.5268
     24 O3         14.1223   -4.5698    1.6519 O.2       1 <0>        -0.4781
     25 C19        15.5756   -3.3139    3.1335 C.3       1 <0>        -0.1577
     26 C20        15.5919   -3.3345    4.6755 C.3       1 <0>        -0.1578
     27 C21        14.4918   -4.3116    5.0288 C.2       1 <0>         0.5259
     28 O4         14.1624   -4.6215    6.1535 O.2       1 <0>        -0.4757
     29 H1         -0.9555    1.8930    0.0258 H         1 <0>         0.1355
     30 H2          1.1968    3.1417    0.0071 H         1 <0>         0.1458
     31 H3          3.3012    1.9304   -0.0195 H         1 <0>         0.1615
     32 H4         -0.9224   -0.5624    0.0082 H         1 <0>         0.1484
     33 H5          3.5502   -1.6332   -0.5545 H         1 <0>         0.1025
     34 H6          4.4112   -0.0754   -0.5543 H         1 <0>         0.0927
     35 H7          4.2452    0.0161    1.9181 H         1 <0>         0.0727
     36 H8          3.3842   -1.5417    1.9179 H         1 <0>         0.0777
     37 H9          5.3493   -2.6278    0.8656 H         1 <0>         0.0767
     38 H10         6.2103   -1.0699    0.8657 H         1 <0>         0.0744
     39 H11         6.0443   -0.9784    3.3381 H         1 <0>         0.0711
     40 H12         5.1832   -2.5362    3.3380 H         1 <0>         0.0721
     41 H13         7.6254   -2.8690    1.9589 H         1 <0>         0.4008
     42 H14         9.2318   -3.7459    1.8018 H         1 <0>         0.1281
     43 H15        11.3850   -4.9347    1.7859 H         1 <0>         0.1352
     44 H16        11.4154   -4.9764    6.0521 H         1 <0>         0.1363
     45 H17         9.2681   -3.7774    6.0902 H         1 <0>         0.1398
     46 H18        12.9221   -6.3883    4.7843 H         1 <0>         0.1066
     47 H19        12.9093   -6.3712    3.0045 H         1 <0>         0.1063
     48 H20        16.5309   -3.6557    2.7351 H         1 <0>         0.1232
     49 H21        15.3407   -2.3151    2.7656 H         1 <0>         0.1220
     50 H22        16.5553   -3.6866    5.0443 H         1 <0>         0.1236
     51 H23        15.3651   -2.3460    5.0748 H         1 <0>         0.1220
@<TRIPOS>BOND
     1    1    7 2
     2    1    2 1
     3    1   29 1
     4    2    3 2
     5    2   30 1
     6    3    4 1
     7    3   31 1
     8    4    5 am
     9    4    8 1
    10    5    6 2
    11    5    7 1
    12    7   32 1
    13    8    9 1
    14    8   33 1
    15    8   34 1
    16    9   10 1
    17    9   35 1
    18    9   36 1
    19   10   11 1
    20   10   37 1
    21   10   38 1
    22   11   12 1
    23   11   39 1
    24   11   40 1
    25   12   13 am
    26   12   41 1
    27   13   14 2
    28   13   15 1
    29   15   20 ar
    30   15   16 ar
    31   16   17 ar
    32   16   42 1
    33   17   18 ar
    34   17   43 1
    35   18   19 ar
    36   18   21 1
    37   19   20 ar
    38   19   44 1
    39   20   45 1
    40   21   22 1
    41   21   46 1
    42   21   47 1
    43   22   27 am
    44   22   23 am
    45   23   24 2
    46   23   25 1
    47   25   26 1
    48   25   48 1
    49   25   49 1
    50   26   27 1
    51   26   50 1
    52   26   51 1
    53   27   28 2
@<TRIPOS>MOLECULE
ZINC22205038
   29    30     0     0     0
SMALL
USER_CHARGES
4-[(2-hydroxy-5-nitro-phenyl)methyleneamino]benzoic acid
@<TRIPOS>ATOM
      1 C1          3.1393    7.6501    0.8681 C.ar      1 <0>        -0.0742
      2 C2          3.1497    6.2848    0.8615 C.ar      1 <0>        -0.1271
      3 C3          2.2904    5.5828    0.0092 C.ar      1 <0>         0.0919
      4 C4          1.4244    6.2801   -0.8401 C.ar      1 <0>        -0.1788
      5 C5          1.4105    7.6453   -0.8295 C.ar      1 <0>        -0.0631
      6 C6          2.2696    8.3470    0.0227 C.ar      1 <0>        -0.1383
      7 C7          2.2582    9.8213    0.0302 C.2       1 <0>         0.4943
      8 O1          3.0042   10.4309    0.7707 O.co2     1 <0>        -0.6394
      9 O2          1.4204   10.4928   -0.7842 O.co2     1 <0>        -0.7637
     10 N1          2.3010    4.2175    0.0023 N.2       1 <0>        -0.4413
     11 C8          1.1757    3.5560    0.0094 C.2       1 <0>         0.2022
     12 C9          1.1871    2.0869    0.0019 C.ar      1 <0>        -0.2109
     13 C10        -0.0166    1.3733    0.0096 C.ar      1 <0>         0.0241
     14 C11         0.0021   -0.0041    0.0020 C.ar      1 <0>        -0.1849
     15 C12         1.2076   -0.6873   -0.0132 C.ar      1 <0>        -0.0141
     16 C13         2.4034    0.0038   -0.0204 C.ar      1 <0>        -0.2433
     17 C14         2.4056    1.3899   -0.0125 C.ar      1 <0>         0.3199
     18 O3          3.5798    2.0698   -0.0187 O.3       1 <0>        -0.6074
     19 N2         -1.2717   -0.7580    0.0096 N.pl3     1 <0>         0.0724
     20 O4         -2.3330   -0.1604    0.0226 O.2       1 <0>        -0.2309
     21 O5         -1.2586   -1.9759    0.0030 O.3       1 <0>        -0.2346
     22 H1          3.8023    8.1919    1.5262 H         1 <0>         0.1254
     23 H2          3.8209    5.7467    1.5145 H         1 <0>         0.1201
     24 H3          0.7639    5.7384   -1.5010 H         1 <0>         0.1130
     25 H4          0.7388    8.1835   -1.4819 H         1 <0>         0.1264
     26 H5          0.2189    4.0985    0.0210 H         1 <0>         0.0909
     27 H6         -0.9586    1.9015    0.0169 H         1 <0>         0.1291
     28 H7          1.2120   -1.7672   -0.0190 H         1 <0>         0.1222
     29 H8          3.3384   -0.5367   -0.0319 H         1 <0>         0.1204
@<TRIPOS>BOND
     1    1    6 ar
     2    1    2 ar
     3    1   22 1
     4    2    3 ar
     5    2   23 1
     6    3    4 ar
     7    3   10 1
     8    4    5 ar
     9    4   24 1
    10    5    6 ar
    11    5   25 1
    12    6    7 1
    13    7    8 2
    14    7    9 1
    15   10   11 2
    16   11   12 1
    17   11   26 1
    18   12   17 ar
    19   12   13 ar
    20   13   14 ar
    21   13   27 1
    22   14   15 ar
    23   14   19 1
    24   15   16 ar
    25   15   28 1
    26   16   17 ar
    27   16   29 1
    28   17   18 1
    29   19   20 2
    30   19   21 1
@<TRIPOS>MOLECULE
ZINC13269523
   25    26     0     0     0
SMALL
USER_CHARGES

@<TRIPOS>ATOM
      1 C1          0.1003    1.5745   -0.1416 C.ar      1 <0>        -0.2045
      2 C2          1.3071    2.1989   -0.3639 C.ar      1 <0>        -0.0754
      3 C3          2.4933    1.4575   -0.3315 C.ar      1 <0>        -0.1699
      4 C4          2.4413    0.0777   -0.0713 C.ar      1 <0>         0.2920
      5 C5          1.2124   -0.5339    0.1506 C.ar      1 <0>        -0.1389
      6 C6          0.0520    0.2129    0.1149 C.ar      1 <0>        -0.1058
      7 Cl1         1.1374   -2.2381    0.4729 Cl        1 <0>        -0.0803
      8 N1          3.6097   -0.6705   -0.0365 N.2       1 <0>        -1.0702
      9 S1          3.9129   -1.7880   -1.2204 S.o2      1 <0>         2.6199
     10 O1          2.9216   -2.7977   -1.0893 O.2       1 <0>        -1.0250
     11 O2          4.1045   -1.0606   -2.4260 O.2       1 <0>        -1.0196
     12 C7          5.4571   -2.5457   -0.8385 C.2       1 <0>        -0.6295
     13 C8          5.7047   -3.6503   -0.0929 C.2       1 <0>        -0.0728
     14 C9          7.0119   -4.0675    0.0735 C.2       1 <0>        -0.1773
     15 C10         8.0077   -3.3598   -0.5139 C.2       1 <0>        -0.2030
     16 S2          7.1010   -2.0623   -1.3395 S.3       1 <0>         0.1612
     17 C11         3.7855    2.1179   -0.5686 C.2       1 <0>         0.5279
     18 O3          3.8260    3.3196   -0.7952 O.co2     1 <0>        -0.7363
     19 O4          4.8203    1.4656   -0.5393 O.co2     1 <0>        -0.6441
     20 H1         -0.8136    2.1495   -0.1627 H         1 <0>         0.0988
     21 H2          1.3381    3.2599   -0.5636 H         1 <0>         0.1112
     22 H3         -0.9000   -0.2668    0.2880 H         1 <0>         0.0991
     23 H4          4.8928   -4.1960    0.3647 H         1 <0>         0.1374
     24 H5          7.2366   -4.9441    0.6630 H         1 <0>         0.1254
     25 H6          9.0728   -3.5371   -0.4915 H         1 <0>         0.1797
@<TRIPOS>BOND
     1    1    6 ar
     2    1    2 ar
     3    1   20 1
     4    2    3 ar
     5    2   21 1
     6    3    4 ar
     7    3   17 1
     8    4    5 ar
     9    4    8 1
    10    5    6 ar
    11    5    7 1
    12    6   22 1
    13    8    9 1
    14    9   10 2
    15    9   11 2
    16    9   12 1
    17   12   16 1
    18   12   13 2
    19   13   14 1
    20   13   23 1
    21   14   15 2
    22   14   24 1
    23   15   16 1
    24   15   25 1
    25   17   18 2
    26   17   19 1
@<TRIPOS>MOLECULE
ZINC48382682
   32    33     0     0     0
SMALL
USER_CHARGES

@<TRIPOS>ATOM
      1 C1         -0.0168    1.3840    0.0097 C.ar      1 <0>        -0.1573
      2 C2          1.1702    2.0916    0.0021 C.ar      1 <0>        -0.1130
      3 C3          2.3804    1.4164   -0.0135 C.ar      1 <0>        -0.0581
      4 C4          2.4013    0.0273   -0.0212 C.ar      1 <0>         0.1470
      5 C5          1.2144   -0.6816   -0.0132 C.ar      1 <0>        -0.2795
      6 C6          0.0021   -0.0041    0.0020 C.ar      1 <0>         0.2954
      7 N1         -1.1999   -0.7204    0.0101 N.2       1 <0>        -1.0787
      8 S1         -1.1771   -2.3762    0.0010 S.o2      1 <0>         2.6142
      9 O1         -0.6332   -2.7680   -1.2519 O.2       1 <0>        -1.0232
     10 O2         -0.6084   -2.7813    1.2386 O.2       1 <0>        -1.0333
     11 C7         -2.8530   -2.9204    0.0148 C.ar      1 <0>        -0.6500
     12 C8         -3.4990   -3.1344    1.2210 C.ar      1 <0>        -0.0030
     13 C9         -4.8133   -3.5612    1.2437 C.ar      1 <0>        -0.2025
     14 C10        -5.4935   -3.7779    0.0590 C.ar      1 <0>         0.1672
     15 C11        -4.8460   -3.5628   -1.1633 C.ar      1 <0>        -0.1991
     16 C12        -3.5178   -3.1260   -1.1746 C.ar      1 <0>         0.0417
     17 C13        -5.5615   -3.7912   -2.4310 C.2       1 <0>         0.5259
     18 O3         -4.9925   -3.6022   -3.4971 O.co2     1 <0>        -0.6803
     19 O4         -6.7246   -4.1697   -2.4171 O.co2     1 <0>        -0.6822
     20 F1         -6.7780   -4.1959    0.0814 F         1 <0>        -0.1211
     21 F2          3.5812   -0.6307   -0.0369 F         1 <0>        -0.1474
     22 O5          3.5484    2.1141   -0.0219 O.3       1 <0>        -0.3218
     23 C14         3.4524    3.5399   -0.0137 C.3       1 <0>         0.4119
     24 F3          2.7516    3.9666   -1.1468 F         1 <0>        -0.2048
     25 F4          2.7747    3.9551    1.1376 F         1 <0>        -0.2058
     26 H1         -0.9593    1.9110    0.0260 H         1 <0>         0.1267
     27 H2          1.1548    3.1715    0.0081 H         1 <0>         0.1250
     28 H3          1.2299   -1.7614   -0.0196 H         1 <0>         0.1200
     29 H4         -2.9727   -2.9672    2.1491 H         1 <0>         0.1379
     30 H5         -5.3102   -3.7263    2.1883 H         1 <0>         0.1309
     31 H6         -3.0126   -2.9543   -2.1136 H         1 <0>         0.1494
     32 H7          4.4533    3.9714   -0.0216 H         1 <0>         0.1678
@<TRIPOS>BOND
     1    1    6 ar
     2    1    2 ar
     3    1   26 1
     4    2    3 ar
     5    2   27 1
     6    3    4 ar
     7    3   22 1
     8    4    5 ar
     9    4   21 1
    10    5    6 ar
    11    5   28 1
    12    6    7 1
    13    7    8 1
    14    8    9 2
    15    8   10 2
    16    8   11 1
    17   11   16 ar
    18   11   12 ar
    19   12   13 ar
    20   12   29 1
    21   13   14 ar
    22   13   30 1
    23   14   15 ar
    24   14   20 1
    25   15   16 ar
    26   15   17 1
    27   16   31 1
    28   17   18 2
    29   17   19 1
    30   22   23 1
    31   23   24 1
    32   23   25 1
    33   23   32 1
@<TRIPOS>MOLECULE
ZINC59109309
   29    30     0     0     0
SMALL
USER_CHARGES

@<TRIPOS>ATOM
      1 C1         -0.0167    1.3825    0.0096 C.2       1 <0>        -0.0945
      2 C2          1.3131    1.8035   -0.0008 C.2       1 <0>        -0.2406
      3 C3          2.0955    0.6691   -0.0144 C.2       1 <0>         0.1566
      4 O1          1.2904   -0.4076   -0.0125 O.3       1 <0>        -0.1498
      5 C4          0.0021   -0.0041    0.0020 C.2       1 <0>        -0.0968
      6 C5         -1.1249   -0.8440    0.0087 C.2       1 <0>         0.1043
      7 C6         -0.9634   -2.2210   -0.0003 C.2       1 <0>        -0.0461
      8 C7          0.3517   -2.7876   -0.0164 C.1       1 <0>         0.2279
      9 N1          1.3950   -3.2370   -0.0291 N.1       1 <0>        -0.3605
     10 C8         -2.1116   -3.0767    0.0065 C.1       1 <0>         0.2793
     11 N2         -3.0224   -3.7556    0.0119 N.1       1 <0>        -0.4272
     12 C9          3.5712    0.6409   -0.0293 C.ar      1 <0>        -0.1129
     13 C10         4.2921    1.8359   -0.0248 C.ar      1 <0>        -0.0423
     14 C11         5.6873    1.8091   -0.0391 C.ar      1 <0>        -0.1646
     15 C12         6.3616    0.5877   -0.0582 C.ar      1 <0>        -0.0115
     16 C13         5.6409   -0.6071   -0.0632 C.ar      1 <0>        -0.1637
     17 C14         4.2458   -0.5807   -0.0423 C.ar      1 <0>        -0.0467
     18 C15         6.3542   -1.8990   -0.0840 C.2       1 <0>         0.5252
     19 O2          7.5768   -1.9222   -0.0968 O.co2     1 <0>        -0.6880
     20 O3          5.7227   -2.9461   -0.0883 O.co2     1 <0>        -0.6904
     21 C16         6.4496    3.0728   -0.0343 C.2       1 <0>         0.5288
     22 O4          5.8587    4.1433   -0.0179 O.co2     1 <0>        -0.6989
     23 O5          7.6722    3.0494   -0.0467 O.co2     1 <0>        -0.6843
     24 H1         -0.8923    2.0146    0.0254 H         1 <0>         0.1614
     25 H2          1.6633    2.8251    0.0010 H         1 <0>         0.1633
     26 H3         -2.1168   -0.4167    0.0208 H         1 <0>         0.1741
     27 H4          3.7702    2.7813   -0.0107 H         1 <0>         0.1285
     28 H5          7.4413    0.5671   -0.0696 H         1 <0>         0.1383
     29 H6          3.6880   -1.5055   -0.0413 H         1 <0>         0.1307
@<TRIPOS>BOND
     1    1    5 2
     2    1    2 1
     3    1   24 1
     4    2    3 2
     5    2   25 1
     6    3    4 1
     7    3   12 1
     8    4    5 1
     9    5    6 1
    10    6    7 2
    11    6   26 1
    12    7    8 1
    13    7   10 1
    14    8    9 3
    15   10   11 3
    16   12   17 ar
    17   12   13 ar
    18   13   14 ar
    19   13   27 1
    20   14   15 ar
    21   14   21 1
    22   15   16 ar
    23   15   28 1
    24   16   17 ar
    25   16   18 1
    26   17   29 1
    27   18   19 2
    28   18   20 1
    29   21   22 2
    30   21   23 1
@<TRIPOS>MOLECULE
ZINC66580085
   37    38     0     0     0
SMALL
USER_CHARGES

@<TRIPOS>ATOM
      1 C1         -0.0225    1.8097    0.0120 C.3       1 <0>        -0.6337
      2 S1          0.0021   -0.0041    0.0020 S.o2      1 <0>         2.4894
      3 O1          0.8352   -0.4880    1.0465 O.2       1 <0>        -1.0467
      4 O2         -1.3147   -0.5105   -0.1678 O.2       1 <0>        -1.0470
      5 N1          0.7947   -0.4113   -1.3938 N.2       1 <0>        -1.0447
      6 C2          0.9925   -1.7587   -1.7190 C.ar      1 <0>         0.2462
      7 C3          0.5204   -2.7538   -0.8766 C.ar      1 <0>        -0.2539
      8 C4          0.7164   -4.0838   -1.1999 C.ar      1 <0>        -0.1604
      9 C5          1.3825   -4.4260   -2.3621 C.ar      1 <0>        -0.1656
     10 C6          1.8565   -3.4402   -3.2079 C.ar      1 <0>        -0.2567
     11 C7          1.6598   -2.1039   -2.8941 C.ar      1 <0>         0.2358
     12 N2          2.1343   -1.1040   -3.7517 N.2       1 <0>        -1.0323
     13 S2          2.9262   -1.5166   -5.1463 S.o2      1 <0>         2.5480
     14 O3          4.1413   -2.1403   -4.7540 O.2       1 <0>        -1.0461
     15 O4          1.9728   -2.1621   -5.9791 O.2       1 <0>        -1.0472
     16 C8          3.3693   -0.0163   -5.9572 C.2       1 <0>        -0.6262
     17 C9          4.6471    0.3028   -6.1091 C.2       1 <0>        -0.0366
     18 C10         5.0187    1.5612   -6.7892 C.ar      1 <0>        -0.0428
     19 C11         4.0270    2.4186   -7.2676 C.ar      1 <0>        -0.0921
     20 C12         4.3804    3.5917   -7.9016 C.ar      1 <0>        -0.1170
     21 C13         5.7149    3.9196   -8.0644 C.ar      1 <0>        -0.1149
     22 C14         6.7034    3.0748   -7.5934 C.ar      1 <0>        -0.1154
     23 C15         6.3635    1.9003   -6.9508 C.ar      1 <0>        -0.0256
     24 Cl1         7.6051    0.8445   -6.3531 Cl        1 <0>        -0.0620
     25 H1          1.0001    2.1870    0.0043 H         1 <0>         0.1097
     26 H2         -0.5497    2.1708   -0.8711 H         1 <0>         0.1096
     27 H3         -0.5327    2.1613    0.9088 H         1 <0>         0.0861
     28 H4         -0.0000   -2.4901    0.0322 H         1 <0>         0.0862
     29 H5          0.3484   -4.8576   -0.5425 H         1 <0>         0.0777
     30 H6          1.5333   -5.4663   -2.6099 H         1 <0>         0.0781
     31 H7          2.3767   -3.7110   -4.1148 H         1 <0>         0.0813
     32 H8          2.5999    0.6434   -6.3305 H         1 <0>         0.1454
     33 H9          5.4164   -0.3568   -5.7358 H         1 <0>         0.1444
     34 H10         2.9850    2.1640   -7.1421 H         1 <0>         0.1403
     35 H11         3.6135    4.2558   -8.2722 H         1 <0>         0.1290
     36 H12         5.9857    4.8391   -8.5619 H         1 <0>         0.1281
     37 H13         7.7431    3.3363   -7.7240 H         1 <0>         0.1315
@<TRIPOS>BOND
     1    1    2 1
     2    1   25 1
     3    1   26 1
     4    1   27 1
     5    2    3 2
     6    2    4 2
     7    2    5 1
     8    5    6 1
     9    6   11 ar
    10    6    7 ar
    11    7    8 ar
    12    7   28 1
    13    8    9 ar
    14    8   29 1
    15    9   10 ar
    16    9   30 1
    17   10   11 ar
    18   10   31 1
    19   11   12 1
    20   12   13 1
    21   13   14 2
    22   13   15 2
    23   13   16 1
    24   16   17 2
    25   16   32 1
    26   17   18 1
    27   17   33 1
    28   18   23 ar
    29   18   19 ar
    30   19   20 ar
    31   19   34 1
    32   20   21 ar
    33   20   35 1
    34   21   22 ar
    35   21   36 1
    36   22   23 ar
    37   22   37 1
    38   23   24 1
@<TRIPOS>MOLECULE
ZINC13273916
   32    33     0     0     0
SMALL
USER_CHARGES
2-(2-carboxyphenoxy)-5-sulfamoyl-benzoic acid
@<TRIPOS>ATOM
      1 C1          4.2679    4.3879   -3.6098 C.ar      1 <0>        -0.1849
      2 C2          3.0312    3.7648   -3.5622 C.ar      1 <0>        -0.0887
      3 C3          2.3798    3.5962   -2.3567 C.ar      1 <0>        -0.2225
      4 C4          2.9567    4.0604   -1.1836 C.ar      1 <0>         0.1961
      5 C5          4.2083    4.6911   -1.2274 C.ar      1 <0>        -0.1337
      6 C6          4.8586    4.8502   -2.4542 C.ar      1 <0>        -0.0478
      7 C7          4.8341    5.1837    0.0129 C.2       1 <0>         0.4979
      8 O1          4.2653    5.0437    1.0775 O.co2     1 <0>        -0.6036
      9 O2          2.3156    3.9001    0.0008 O.3       1 <0>        -0.2012
     10 C8          1.1648    3.1823    0.0100 C.ar      1 <0>         0.1814
     11 C9         -0.0577    3.8238   -0.1259 C.ar      1 <0>        -0.1697
     12 C10        -1.2282    3.0920   -0.1159 C.ar      1 <0>        -0.0154
     13 C11        -1.1925    1.7139    0.0241 C.ar      1 <0>        -0.7057
     14 C12         0.0122    1.0604    0.1654 C.ar      1 <0>         0.0296
     15 C13         1.2051    1.7885    0.1572 C.ar      1 <0>        -0.1450
     16 C14         2.4979    1.0953    0.3018 C.2       1 <0>         0.4805
     17 O3          3.5328    1.7319    0.2941 O.co2     1 <0>        -0.5758
     18 S1         -2.6950    0.7936    0.0280 S.o2      1 <0>         2.7081
     19 O4         -3.6540    1.5788   -0.6669 O.2       1 <0>        -0.9766
     20 O5         -2.3619   -0.5295   -0.3691 O.2       1 <0>        -0.9636
     21 N1         -3.2084    0.7010    1.5997 N.pl3     1 <0>        -1.2507
     22 H1          4.7713    4.5115   -4.5573 H         1 <0>         0.1121
     23 H2          2.5759    3.4053   -4.4731 H         1 <0>         0.1119
     24 H3          1.4180    3.1058   -2.3274 H         1 <0>         0.1144
     25 H4          5.8230    5.3346   -2.4962 H         1 <0>         0.1325
     26 H5         -0.0938    4.8972   -0.2398 H         1 <0>         0.1366
     27 H6         -2.1774    3.5962   -0.2220 H         1 <0>         0.1388
     28 H7          0.0349   -0.0135    0.2780 H         1 <0>         0.1535
     29 H8         -4.1562    0.6443    1.7978 H         1 <0>         0.4145
     30 H9         -2.5612    0.7035    2.3222 H         1 <0>         0.4195
     31 O6          6.0370    5.7892   -0.0338 O.co2     1 <0>        -0.7787
     32 O7          2.5320   -0.2444    0.4426 O.co2     1 <0>        -0.7640
@<TRIPOS>BOND
     1    1    6 ar
     2    1    2 ar
     3    1   22 1
     4    2    3 ar
     5    2   23 1
     6    3    4 ar
     7    3   24 1
     8    4    5 ar
     9    4    9 1
    10    5    6 ar
    11    5    7 1
    12    6   25 1
    13    7    8 2
    14    7   31 1
    15    9   10 1
    16   10   15 ar
    17   10   11 ar
    18   11   12 ar
    19   11   26 1
    20   12   13 ar
    21   12   27 1
    22   13   14 ar
    23   13   18 1
    24   14   15 ar
    25   14   28 1
    26   15   16 1
    27   16   17 2
    28   16   32 1
    29   18   19 2
    30   18   20 2
    31   18   21 1
    32   21   29 1
    33   21   30 1
@<TRIPOS>MOLECULE
ZINC19815583
   37    38     0     0     0
SMALL
USER_CHARGES
4-[(4-ethoxybenzoyl)amino]phthalic acid
@<TRIPOS>ATOM
      1 C1         -7.8946   -1.8344   -0.4082 C.3       1 <0>        -0.1535
      2 C2         -6.5947   -1.0275   -0.3928 C.3       1 <0>         0.0503
      3 O1         -5.4816   -1.9192   -0.3028 O.3       1 <0>        -0.3152
      4 C3         -4.2451   -1.3605   -0.2780 C.ar      1 <0>         0.1431
      5 C4         -3.1197   -2.1717   -0.1914 C.ar      1 <0>        -0.1589
      6 C5         -1.8633   -1.6088   -0.1665 C.ar      1 <0>        -0.0212
      7 C6         -1.7205   -0.2200   -0.2283 C.ar      1 <0>        -0.1524
      8 C7         -2.8548    0.5923   -0.3100 C.ar      1 <0>        -0.0476
      9 C8         -4.1075    0.0213   -0.3398 C.ar      1 <0>        -0.2176
     10 C9         -0.3760    0.3875   -0.2014 C.2       1 <0>         0.5421
     11 O2          0.6095   -0.3205   -0.1252 O.2       1 <0>        -0.5047
     12 N1         -0.2405    1.7271   -0.2611 N.am      1 <0>        -0.6676
     13 C10         1.0227    2.3053   -0.1501 C.ar      1 <0>         0.0924
     14 C11         1.1727    3.5210    0.5096 C.ar      1 <0>        -0.1545
     15 C12         2.4189    4.0994    0.6295 C.ar      1 <0>        -0.1032
     16 C13         3.5362    3.4725    0.0793 C.ar      1 <0>        -0.0732
     17 C14         3.3874    2.2437   -0.5943 C.ar      1 <0>        -0.0840
     18 C15         2.1275    1.6677   -0.7042 C.ar      1 <0>        -0.0801
     19 C16         4.5660    1.5704   -1.1809 C.2       1 <0>         0.4814
     20 O3          5.6452    2.1275   -1.1830 O.co2     1 <0>        -0.5771
     21 O4          4.4428    0.3391   -1.7130 O.co2     1 <0>        -0.7836
     22 C17         4.8694    4.0931    0.2024 C.2       1 <0>         0.5090
     23 O5          5.7937    3.4589    0.6707 O.co2     1 <0>        -0.5944
     24 O6          5.0615    5.3631   -0.2047 O.co2     1 <0>        -0.7903
     25 H1         -8.7514   -1.1480   -0.4775 H         1 <0>         0.0775
     26 H2         -7.9711   -2.4241    0.5172 H         1 <0>         0.0660
     27 H3         -7.8958   -2.5111   -1.2754 H         1 <0>         0.0663
     28 H4         -6.5182   -0.4378   -1.3182 H         1 <0>         0.0640
     29 H5         -6.5934   -0.3507    0.4744 H         1 <0>         0.0637
     30 H6         -3.2308   -3.2449   -0.1433 H         1 <0>         0.1354
     31 H7         -0.9893   -2.2398   -0.0995 H         1 <0>         0.1468
     32 H8         -2.7489    1.6662   -0.3538 H         1 <0>         0.1307
     33 H9         -4.9844    0.6481   -0.4073 H         1 <0>         0.1307
     34 H10        -1.1269    2.3640   -0.3974 H         1 <0>         0.4139
     35 H11         0.3095    4.0122    0.9338 H         1 <0>         0.1082
     36 H12         2.5289    5.0412    1.1465 H         1 <0>         0.1177
     37 H13         2.0064    0.7263   -1.2194 H         1 <0>         0.1399
@<TRIPOS>BOND
     1    1    2 1
     2    1   25 1
     3    1   26 1
     4    1   27 1
     5    2    3 1
     6    2   28 1
     7    2   29 1
     8    3    4 1
     9    4    9 ar
    10    4    5 ar
    11    5    6 ar
    12    5   30 1
    13    6    7 ar
    14    6   31 1
    15    7    8 ar
    16    7   10 1
    17    8    9 ar
    18    8   32 1
    19    9   33 1
    20   10   11 2
    21   10   12 am
    22   12   13 1
    23   12   34 1
    24   13   18 ar
    25   13   14 ar
    26   14   15 ar
    27   14   35 1
    28   15   16 ar
    29   15   36 1
    30   16   17 ar
    31   16   22 1
    32   17   18 ar
    33   17   19 1
    34   18   37 1
    35   19   20 2
    36   19   21 1
    37   22   23 2
    38   22   24 1
@<TRIPOS>MOLECULE
ZINC37624678
   41    41     0     0     0
SMALL
USER_CHARGES

@<TRIPOS>ATOM
      1 C1         -0.0187    1.5258    0.0104 C.3       1 <0>        -0.1518
      2 C2          0.0021   -0.0041    0.0020 C.3       1 <0>         0.0594
      3 O1         -1.3386   -0.4987    0.0122 O.3       1 <0>        -0.3371
      4 C3         -1.4970   -1.8370    0.0065 C.2       1 <0>         0.5666
      5 O2         -0.5233   -2.5641   -0.0067 O.2       1 <0>        -0.5165
      6 C4         -2.8499   -2.4182    0.0163 C.2       1 <0>        -0.2560
      7 C5         -3.6299   -2.7494   -1.1145 C.2       1 <0>        -0.0252
      8 C6         -4.8081   -3.2577   -0.6513 C.2       1 <0>        -0.0734
      9 N1         -4.7719   -3.2474    0.7266 N.pl3     1 <0>        -0.4611
     10 H1         -5.4832   -3.5560    1.3094 H         1 <0>         0.4347
     11 C7         -3.5946   -2.7488    1.1341 C.2       1 <0>         0.2109
     12 C8         -3.1591   -2.5752    2.5663 C.3       1 <0>        -0.0277
     13 C9         -3.4693   -1.1487    3.0244 C.3       1 <0>        -0.2142
     14 C10        -4.9613   -0.9371    3.0330 C.2       1 <0>         0.5186
     15 O3         -5.4620   -0.1580    3.8259 O.co2     1 <0>        -0.6893
     16 O4         -5.6678   -1.5450    2.2469 O.co2     1 <0>        -0.7245
     17 C11        -2.9240   -0.9374    4.4133 C.2       1 <0>         0.5281
     18 O5         -2.3924    0.1204    4.7051 O.co2     1 <0>        -0.7114
     19 O6         -3.0143   -1.8241    5.2452 O.co2     1 <0>        -0.7150
     20 C12        -5.9221   -3.7336   -1.4777 C.2       1 <0>         0.5498
     21 O7         -5.8399   -3.6937   -2.6903 O.2       1 <0>        -0.5202
     22 O8         -7.0377   -4.2156   -0.8928 O.3       1 <0>        -0.3506
     23 C13        -8.0832   -4.6618   -1.7588 C.3       1 <0>         0.0650
     24 C14        -9.2578   -5.1701   -0.9204 C.3       1 <0>        -0.1524
     25 C15        -3.2353   -2.5738   -2.5583 C.3       1 <0>        -0.0859
     26 H2          1.0039    1.9031    0.0027 H         1 <0>         0.0714
     27 H3         -0.5459    1.8868   -0.8726 H         1 <0>         0.0616
     28 H4         -0.5289    1.8773    0.9072 H         1 <0>         0.0748
     29 H5          0.5123   -0.3556   -0.8948 H         1 <0>         0.0588
     30 H6          0.5293   -0.3651    0.8851 H         1 <0>         0.0671
     31 H7         -3.6950   -3.2841    3.1975 H         1 <0>         0.0781
     32 H8         -2.0872   -2.7570    2.6447 H         1 <0>         0.0670
     33 H9         -3.0055   -0.4384    2.3400 H         1 <0>         0.0622
     34 H10        -8.4150   -3.8334   -2.3846 H         1 <0>         0.0642
     35 H11        -7.7119   -5.4686   -2.3908 H         1 <0>         0.0622
     36 H12       -10.0552   -5.5105   -1.5810 H         1 <0>         0.0731
     37 H13        -8.9259   -5.9985   -0.2946 H         1 <0>         0.0652
     38 H14        -9.6290   -4.3633   -0.2884 H         1 <0>         0.0696
     39 H15        -2.7340   -3.4754   -2.9102 H         1 <0>         0.0654
     40 H16        -4.1269   -2.3956   -3.1595 H         1 <0>         0.0805
     41 H17        -2.5597   -1.7233   -2.6495 H         1 <0>         0.0578
@<TRIPOS>BOND
     1    1    2 1
     2    1   26 1
     3    1   27 1
     4    1   28 1
     5    2    3 1
     6    2   29 1
     7    2   30 1
     8    3    4 1
     9    4    5 2
    10    4    6 1
    11    6   11 2
    12    6    7 1
    13    7    8 2
    14    7   25 1
    15    8    9 1
    16    8   20 1
    17    9   10 1
    18    9   11 1
    19   11   12 1
    20   12   13 1
    21   12   31 1
    22   12   32 1
    23   13   14 1
    24   13   17 1
    25   13   33 1
    26   14   15 2
    27   14   16 1
    28   17   18 2
    29   17   19 1
    30   20   21 2
    31   20   22 1
    32   22   23 1
    33   23   24 1
    34   23   34 1
    35   23   35 1
    36   24   36 1
    37   24   37 1
    38   24   38 1
    39   25   39 1
    40   25   40 1
    41   25   41 1
@<TRIPOS>MOLECULE
ZINC44260711
   29    29     0     0     0
SMALL
USER_CHARGES

@<TRIPOS>ATOM
      1 C1         -0.0167    1.3817    0.0096 C.ar      1 <0>         0.0063
      2 C2          1.1958    2.0588    0.0017 C.ar      1 <0>         0.0194
      3 C3          2.3733    1.3313   -0.0135 C.ar      1 <0>         0.1226
      4 N1          2.3507    0.0128   -0.0203 N.ar      1 <0>        -0.4664
      5 C4          1.2179   -0.6617   -0.0131 C.ar      1 <0>         0.2052
      6 C5          0.0021   -0.0041    0.0020 C.ar      1 <0>        -0.6929
      7 S1         -1.5053   -0.9164    0.0121 S.o2      1 <0>         2.7000
      8 O1         -1.2025   -2.1951    0.5531 O.2       1 <0>        -0.9554
      9 O2         -2.4920   -0.0643    0.5773 O.2       1 <0>        -0.9735
     10 N2         -1.9399   -1.1615   -1.5670 N.pl3     1 <0>        -1.0719
     11 C6         -1.1001   -1.9875   -2.4381 C.3       1 <0>         0.0737
     12 H1         -0.5269   -2.6887   -1.8316 H         1 <0>         0.0787
     13 C7         -1.9865   -2.7635   -3.4143 C.3       1 <0>        -0.0742
     14 C8         -2.8581   -3.7517   -2.6367 C.3       1 <0>        -0.1803
     15 C9         -3.7311   -4.5161   -3.5983 C.2       1 <0>         0.4910
     16 O3         -3.6625   -4.2913   -4.7946 O.co2     1 <0>        -0.6995
     17 O4         -4.5059   -5.3593   -3.1799 O.co2     1 <0>        -0.7190
     18 C10        -0.1558   -1.1032   -3.2110 C.2       1 <0>         0.4865
     19 O5          0.9368   -1.5261   -3.5485 O.co2     1 <0>        -0.6967
     20 O6         -0.4845    0.0350   -3.4990 O.co2     1 <0>        -0.6903
     21 F1          1.2257    3.4094    0.0082 F         1 <0>        -0.1323
     22 H2         -0.9517    1.9220    0.0259 H         1 <0>         0.1599
     23 H3          3.3210    1.8492   -0.0201 H         1 <0>         0.1692
     24 H4          1.2400   -1.7415   -0.0195 H         1 <0>         0.1781
     25 H5         -2.7504   -0.7581   -1.9151 H         1 <0>         0.4173
     26 H6         -2.6241   -2.0669   -3.9586 H         1 <0>         0.0630
     27 H7         -1.3594   -3.3090   -4.1195 H         1 <0>         0.0712
     28 H8         -2.2204   -4.4484   -2.0925 H         1 <0>         0.0562
     29 H9         -3.4852   -3.2063   -1.9315 H         1 <0>         0.0540
@<TRIPOS>BOND
     1    1    6 ar
     2    1    2 ar
     3    1   22 1
     4    2    3 ar
     5    2   21 1
     6    3    4 ar
     7    3   23 1
     8    4    5 ar
     9    5    6 ar
    10    5   24 1
    11    6    7 1
    12    7    8 2
    13    7    9 2
    14    7   10 1
    15   10   11 1
    16   10   25 1
    17   11   12 1
    18   11   13 1
    19   11   18 1
    20   13   14 1
    21   13   26 1
    22   13   27 1
    23   14   15 1
    24   14   28 1
    25   14   29 1
    26   15   16 2
    27   15   17 1
    28   18   19 2
    29   18   20 1
@<TRIPOS>MOLECULE
ZINC65563530
   32    34     0     0     0
SMALL
USER_CHARGES

@<TRIPOS>ATOM
      1 C1         -0.0169    1.3955    0.0097 C.ar      1 <0>        -0.0426
      2 C2          1.1575    2.0927    0.0022 C.ar      1 <0>        -0.2001
      3 C3          2.3730    1.4128   -0.0130 C.ar      1 <0>         0.2707
      4 C4          2.3959    0.0201   -0.0212 C.ar      1 <0>        -0.2801
      5 C5          1.2255   -0.6839   -0.0142 C.ar      1 <0>        -0.0299
      6 C6          0.0021   -0.0041    0.0020 C.ar      1 <0>        -0.2371
      7 C7         -1.2609   -0.7588    0.0105 C.2       1 <0>         0.5319
      8 O1         -2.3295   -0.1631    0.0243 O.co2     1 <0>        -0.7133
      9 O2         -1.2426   -1.9822    0.0038 O.co2     1 <0>        -0.7125
     10 N1          3.5654    2.1253   -0.0206 N.2       1 <0>        -1.0857
     11 S1          5.0117    1.3190   -0.0387 S.o2      1 <0>         2.5822
     12 O3          5.1101    0.6334    1.2021 O.2       1 <0>        -1.0221
     13 O4          5.0863    0.6468   -1.2885 O.2       1 <0>        -1.0232
     14 C8          6.2864    2.5355   -0.0443 C.ar      1 <0>        -0.5856
     15 C9          6.7675    3.0199   -1.2463 C.ar      1 <0>         0.0019
     16 C10         7.7702    3.9766   -1.2674 C.ar      1 <0>        -0.0639
     17 C11         8.2929    4.4504   -0.0747 C.ar      1 <0>        -0.1202
     18 C12         7.8020    3.9568    1.1508 C.ar      1 <0>        -0.1742
     19 C13         6.7957    3.0042    1.1566 C.ar      1 <0>         0.0523
     20 C14         8.5637    4.6602    2.2044 C.2       1 <0>         0.5834
     21 O5          8.4278    4.5046    3.4011 O.2       1 <0>        -0.4614
     22 N2          9.4333    5.5011    1.6157 N.am      1 <0>        -0.6810
     23 C15         9.3363    5.4371    0.2754 C.2       1 <0>         0.5840
     24 O6          9.9957    6.0820   -0.5146 O.2       1 <0>        -0.4708
     25 H1         -0.9590    1.9234    0.0261 H         1 <0>         0.1093
     26 H2          1.1437    3.1726    0.0078 H         1 <0>         0.1035
     27 H3          3.3403   -0.5037   -0.0334 H         1 <0>         0.0886
     28 H4          1.2441   -1.7637   -0.0213 H         1 <0>         0.1062
     29 H5          6.3595    2.6501   -2.1753 H         1 <0>         0.1588
     30 H6          8.1428    4.3510   -2.2094 H         1 <0>         0.1467
     31 H7          6.4130    2.6253    2.0927 H         1 <0>         0.1572
     32 H8         10.0487    6.0780    2.0945 H         1 <0>         0.4267
@<TRIPOS>BOND
     1    1    6 ar
     2    1    2 ar
     3    1   25 1
     4    2    3 ar
     5    2   26 1
     6    3    4 ar
     7    3   10 1
     8    4    5 ar
     9    4   27 1
    10    5    6 ar
    11    5   28 1
    12    6    7 1
    13    7    8 2
    14    7    9 1
    15   10   11 1
    16   11   12 2
    17   11   13 2
    18   11   14 1
    19   14   19 ar
    20   14   15 ar
    21   15   16 ar
    22   15   29 1
    23   16   17 ar
    24   16   30 1
    25   17   23 1
    26   17   18 ar
    27   18   19 ar
    28   18   20 1
    29   19   31 1
    30   20   21 2
    31   20   22 am
    32   22   23 am
    33   22   32 1
    34   23   24 2
@<TRIPOS>MOLECULE
ZINC04896738
   31    31     0     0     0
SMALL
USER_CHARGES
4-(4-sulfophenyl)aminoiminopentanoic acid
@<TRIPOS>ATOM
      1 C1          3.7989   -4.7466    0.2574 C.3       1 <0>        -0.0848
      2 C2          2.4870   -4.0339    0.0524 C.2       1 <0>         0.0777
      3 N1          2.4684   -2.7667   -0.1283 N.2       1 <0>        -0.2504
      4 N2          1.2452   -2.0878   -0.2042 N.pl3     1 <0>        -0.5864
      5 C3          1.2245   -0.6950   -0.2973 C.ar      1 <0>         0.2457
      6 C4          0.0121   -0.0200   -0.3726 C.ar      1 <0>        -0.2132
      7 C5         -0.0045    1.3577   -0.4651 C.ar      1 <0>         0.0089
      8 C6          1.1835    2.0656   -0.4827 C.ar      1 <0>        -0.7106
      9 C7          2.3919    1.3971   -0.4079 C.ar      1 <0>         0.0017
     10 C8          2.4162    0.0196   -0.3153 C.ar      1 <0>        -0.1910
     11 S1          1.1573    3.8234   -0.6008 S.o2      1 <0>         2.7079
     12 O1          2.4098    4.2124   -1.1478 O.2       1 <0>        -1.0655
     13 O2         -0.0798    4.1714   -1.2072 O.2       1 <0>        -1.0649
     14 C9          1.1970   -4.8130    0.0603 C.3       1 <0>        -0.0983
     15 C10         0.5807   -4.7650    1.4598 C.3       1 <0>        -0.1519
     16 C11        -0.7093   -5.5440    1.4677 C.2       1 <0>         0.4612
     17 O3         -1.0960   -6.0824    0.4575 O.co2     1 <0>        -0.6416
     18 H1          4.0347   -4.7749    1.3212 H         1 <0>         0.0773
     19 H2          3.7231   -5.7645   -0.1251 H         1 <0>         0.0748
     20 H3          4.5878   -4.2160   -0.2756 H         1 <0>         0.0710
     21 H4          0.4127   -2.5855   -0.1920 H         1 <0>         0.3935
     22 H5         -0.9159   -0.5722   -0.3585 H         1 <0>         0.1206
     23 H6         -0.9462    1.8827   -0.5281 H         1 <0>         0.1332
     24 H7          3.3176    1.9532   -0.4220 H         1 <0>         0.1307
     25 H8          3.3602   -0.5017   -0.2566 H         1 <0>         0.1287
     26 H9          0.5035   -4.3746   -0.6573 H         1 <0>         0.0686
     27 H10         1.3966   -5.8490   -0.2135 H         1 <0>         0.0831
     28 H11         1.2742   -5.2033    2.1775 H         1 <0>         0.0695
     29 H12         0.3812   -3.7290    1.7336 H         1 <0>         0.0633
     30 O4          1.1145    4.3693    0.8193 O.3       1 <0>        -1.0858
     31 O5         -1.4286   -5.6398    2.5969 O.co2     1 <0>        -0.7731
@<TRIPOS>BOND
     1    1    2 1
     2    1   18 1
     3    1   19 1
     4    1   20 1
     5    2    3 2
     6    2   14 1
     7    3    4 1
     8    4    5 1
     9    4   21 1
    10    5   10 ar
    11    5    6 ar
    12    6    7 ar
    13    6   22 1
    14    7    8 ar
    15    7   23 1
    16    8    9 ar
    17    8   11 1
    18    9   10 ar
    19    9   24 1
    20   10   25 1
    21   11   12 2
    22   11   13 2
    23   11   30 1
    24   14   15 1
    25   14   26 1
    26   14   27 1
    27   15   16 1
    28   15   28 1
    29   15   29 1
    30   16   17 2
    31   16   31 1
@<TRIPOS>MOLECULE
ZINC22052737
   38    37     0     0     0
SMALL
USER_CHARGES
(4S)-4-(tert-butoxycarbonylamino)-2,2-dimethyl-pentanedioic acid
@<TRIPOS>ATOM
      1 C1          1.9337   -1.5651    5.8002 C.3       1 <0>        -0.1829
      2 C2          2.0817   -2.1102    4.3782 C.3       1 <0>         0.1367
      3 C3          2.0032   -3.6379    4.4069 C.3       1 <0>        -0.1379
      4 C4          3.4333   -1.6795    3.8051 C.3       1 <0>        -0.1832
      5 O1          1.0138   -1.5863    3.5455 O.3       1 <0>        -0.3728
      6 C5          0.9414   -0.2483    3.4143 C.2       1 <0>         0.6509
      7 O2          1.7485    0.4622    3.9802 O.2       1 <0>        -0.5835
      8 N1         -0.0263    0.3031    2.6553 N.am      1 <0>        -0.6777
      9 C6         -0.1051    1.7590    2.5126 C.3       1 <0>         0.1200
     10 H1          0.9232    2.1495    2.5240 H         1 <0>         0.0930
     11 C7         -0.8099    2.1053    1.1995 C.3       1 <0>        -0.0768
     12 C8          0.0634    1.6690    0.0214 C.3       1 <0>        -0.1057
     13 C9          0.1805    0.1435    0.0108 C.3       1 <0>        -0.1366
     14 C10         1.4561    2.2864    0.1628 C.3       1 <0>        -0.1204
     15 C11        -0.5635    2.1337   -1.2678 C.2       1 <0>         0.4752
     16 O3         -1.6023    2.7505   -1.2465 O.co2     1 <0>        -0.6400
     17 O4          0.0320    1.8623   -2.4397 O.co2     1 <0>        -0.7820
     18 C12        -0.8828    2.3356    3.6675 C.2       1 <0>         0.4618
     19 O5         -1.3258    1.6053    4.5221 O.co2     1 <0>        -0.6404
     20 O6         -1.0834    3.6604    3.7467 O.co2     1 <0>        -0.7688
     21 H2          1.9901   -0.4667    5.7795 H         1 <0>         0.0939
     22 H3          2.7427   -1.9620    6.4311 H         1 <0>         0.0580
     23 H4          0.9619   -1.8747    6.2122 H         1 <0>         0.0568
     24 H5          2.1096   -4.0298    3.3846 H         1 <0>         0.0632
     25 H6          1.0314   -3.9474    4.8190 H         1 <0>         0.0633
     26 H7          2.8122   -4.0348    5.0378 H         1 <0>         0.0714
     27 H8          3.5397   -2.0714    2.7828 H         1 <0>         0.0563
     28 H9          4.2423   -2.0764    4.4360 H         1 <0>         0.0594
     29 H10         3.4896   -0.5811    3.7845 H         1 <0>         0.0925
     30 H11        -0.7569   -0.3401    2.1430 H         1 <0>         0.4170
     31 H12        -1.7764    1.5821    1.1530 H         1 <0>         0.0565
     32 H13        -0.9781    3.1912    1.1489 H         1 <0>         0.0884
     33 H14         0.8084   -0.1702   -0.8362 H         1 <0>         0.0483
     34 H15        -0.8208   -0.3004   -0.0909 H         1 <0>         0.0391
     35 H16         0.6381   -0.1956    0.9518 H         1 <0>         0.0652
     36 H17         2.0839    1.9727   -0.6842 H         1 <0>         0.0510
     37 H18         1.9137    1.9472    1.1038 H         1 <0>         0.0462
     38 H19         1.3719    3.3831    0.1704 H         1 <0>         0.0448
@<TRIPOS>BOND
     1    1    2 1
     2    1   21 1
     3    1   22 1
     4    1   23 1
     5    2    3 1
     6    2    4 1
     7    2    5 1
     8    3   24 1
     9    3   25 1
    10    3   26 1
    11    4   27 1
    12    4   28 1
    13    4   29 1
    14    5    6 1
    15    6    7 2
    16    6    8 am
    17    8    9 1
    18    8   30 1
    19    9   10 1
    20    9   11 1
    21    9   18 1
    22   11   12 1
    23   11   31 1
    24   11   32 1
    25   12   13 1
    26   12   14 1
    27   12   15 1
    28   13   33 1
    29   13   34 1
    30   13   35 1
    31   14   36 1
    32   14   37 1
    33   14   38 1
    34   15   16 2
    35   15   17 1
    36   18   19 2
    37   18   20 1
@<TRIPOS>MOLECULE
ZINC38059791
   29    30     0     0     0
SMALL
USER_CHARGES

@<TRIPOS>ATOM
      1 C1         -0.0184    1.5028    0.0103 C.3       1 <0>        -0.0466
      2 C2          0.0021   -0.0041    0.0020 C.2       1 <0>         0.0131
      3 C3         -1.0952   -0.8189    0.0027 C.2       1 <0>        -0.2304
      4 C4         -0.5670   -2.1921   -0.0072 C.2       1 <0>        -0.1417
      5 C5          0.7688   -2.0728   -0.0127 C.2       1 <0>        -0.0697
      6 O1          1.0954   -0.7708   -0.0130 O.3       1 <0>        -0.1847
      7 C6          1.7477   -3.2185   -0.0227 C.3       1 <0>         0.2149
      8 N1          2.0586   -3.5832   -1.4071 N.am      1 <0>        -0.7169
      9 C7          2.9182   -4.5894   -1.6622 C.2       1 <0>         0.5985
     10 O2          3.4355   -5.1943   -0.7436 O.2       1 <0>        -0.5672
     11 C8          3.2322   -4.9576   -3.0602 C.ar      1 <0>        -0.1260
     12 C9          4.1202   -6.0060   -3.3278 C.ar      1 <0>        -0.0420
     13 C10         4.3821   -6.3128   -4.6519 C.ar      1 <0>        -0.2426
     14 C11         3.7462   -5.5597   -5.6369 C.ar      1 <0>         0.3715
     15 O3          3.9731   -5.8258   -6.9462 O.3       1 <0>        -0.6909
     16 N2          2.9181   -4.5822   -5.2919 N.ar      1 <0>        -0.3473
     17 N3          2.6686   -4.2984   -4.0652 N.ar      1 <0>        -0.1631
     18 C12        -2.5065   -0.4093    0.0118 C.2       1 <0>         0.5481
     19 O4         -3.3895   -1.2566    0.0112 O.co2     1 <0>        -0.6920
     20 O5         -2.7987    0.7789    0.0200 O.co2     1 <0>        -0.6930
     21 H1          1.0042    1.8801    0.0026 H         1 <0>         0.0558
     22 H2         -0.5455    1.8639   -0.8728 H         1 <0>         0.0861
     23 H3         -0.5286    1.8543    0.9071 H         1 <0>         0.0840
     24 H4         -1.1382   -3.1086   -0.0096 H         1 <0>         0.1477
     25 H5          2.6627   -2.9191    0.4884 H         1 <0>         0.0766
     26 H6          1.3094   -4.0754    0.4890 H         1 <0>         0.0921
     27 H7          1.6458   -3.1004   -2.1402 H         1 <0>         0.4146
     28 H8          4.5870   -6.5584   -2.5258 H         1 <0>         0.1280
     29 H9          5.0597   -7.1120   -4.9139 H         1 <0>         0.1229
@<TRIPOS>BOND
     1    1    2 1
     2    1   21 1
     3    1   22 1
     4    1   23 1
     5    2    6 1
     6    2    3 2
     7    3    4 1
     8    3   18 1
     9    4    5 2
    10    4   24 1
    11    5    6 1
    12    5    7 1
    13    7    8 1
    14    7   25 1
    15    7   26 1
    16    8    9 am
    17    8   27 1
    18    9   10 2
    19    9   11 1
    20   11   17 ar
    21   11   12 ar
    22   12   13 ar
    23   12   28 1
    24   13   14 ar
    25   13   29 1
    26   14   15 1
    27   14   16 ar
    28   16   17 ar
    29   18   19 2
    30   18   20 1
@<TRIPOS>MOLECULE
ZINC42560214
   40    40     0     0     0
SMALL
USER_CHARGES

@<TRIPOS>ATOM
      1 C1         -0.0892    1.3465    0.1106 C.3       1 <0>        -0.1355
      2 C2          0.0527   -0.1768    0.0957 C.3       1 <0>        -0.1156
      3 C3         -1.3342   -0.8190    0.1669 C.3       1 <0>        -0.1408
      4 C4          0.7503   -0.6115   -1.1949 C.3       1 <0>         0.1395
      5 N1          2.1209   -0.0944   -1.2071 N.am      1 <0>        -0.6084
      6 C5          3.2101   -0.8927   -0.6390 C.3       1 <0>         0.0829
      7 C6          2.8627   -2.2846   -0.1072 C.3       1 <0>        -0.1874
      8 C7          3.1845   -1.1511    0.8688 C.3       1 <0>        -0.1970
      9 C8          2.3799    1.1157   -1.7409 C.2       1 <0>         0.7153
     10 O1          1.4665    1.8131   -2.1381 O.2       1 <0>        -0.5889
     11 N2          3.6514    1.5528   -1.8346 N.am      1 <0>        -0.6994
     12 C9          3.9260    2.9103   -2.3122 C.3       1 <0>         0.0920
     13 H1          3.1401    3.5825   -1.9680 H         1 <0>         0.0730
     14 C10         5.2752    3.3804   -1.7647 C.3       1 <0>        -0.0799
     15 C11         5.1951    3.4958   -0.2412 C.3       1 <0>        -0.1751
     16 C12         6.5239    3.9589    0.2980 C.2       1 <0>         0.4905
     17 O2          7.4493    4.1764   -0.4655 O.co2     1 <0>        -0.6976
     18 O3          6.6737    4.1160    1.4978 O.co2     1 <0>        -0.7213
     19 C13         3.9663    2.9142   -3.8187 C.2       1 <0>         0.4949
     20 O4          3.7826    1.8791   -4.4361 O.co2     1 <0>        -0.6975
     21 O5          4.1825    3.9525   -4.4200 O.co2     1 <0>        -0.7047
     22 H2          0.8989    1.8040    0.0598 H         1 <0>         0.0635
     23 H3         -0.6814    1.6646   -0.7474 H         1 <0>         0.0583
     24 H4         -0.5861    1.6561    1.0299 H         1 <0>         0.0362
     25 H5          0.6449   -0.4950    0.9537 H         1 <0>         0.0676
     26 H6         -1.9264   -0.5008   -0.6911 H         1 <0>         0.0546
     27 H7         -1.2331   -1.9042    0.1563 H         1 <0>         0.0486
     28 H8         -1.8311   -0.5093    1.0863 H         1 <0>         0.0511
     29 H9          0.7721   -1.7000   -1.2472 H         1 <0>         0.0681
     30 H10         0.2056   -0.2173   -2.0528 H         1 <0>         0.0813
     31 H11         4.1840   -0.7624   -1.1108 H         1 <0>         0.1235
     32 H12         1.8238   -2.6064   -0.1800 H         1 <0>         0.0975
     33 H13         3.6081   -3.0704   -0.2292 H         1 <0>         0.0979
     34 H14         4.1416   -1.1912    1.3889 H         1 <0>         0.0991
     35 H15         2.3573   -0.7271    1.4381 H         1 <0>         0.0975
     36 H16         4.3847    0.9686   -1.5857 H         1 <0>         0.3845
     37 H17         6.0476    2.6602   -2.0344 H         1 <0>         0.0533
     38 H18         5.5209    4.3533   -2.1904 H         1 <0>         0.0778
     39 H19         4.4226    4.2160    0.0285 H         1 <0>         0.0505
     40 H20         4.9493    2.5229    0.1845 H         1 <0>         0.0501
@<TRIPOS>BOND
     1    1    2 1
     2    1   22 1
     3    1   23 1
     4    1   24 1
     5    2    3 1
     6    2    4 1
     7    2   25 1
     8    3   26 1
     9    3   27 1
    10    3   28 1
    11    4    5 1
    12    4   29 1
    13    4   30 1
    14    5    6 1
    15    5    9 am
    16    6    8 1
    17    6    7 1
    18    6   31 1
    19    7    8 1
    20    7   32 1
    21    7   33 1
    22    8   34 1
    23    8   35 1
    24    9   10 2
    25    9   11 am
    26   11   12 1
    27   11   36 1
    28   12   13 1
    29   12   14 1
    30   12   19 1
    31   14   15 1
    32   14   37 1
    33   14   38 1
    34   15   16 1
    35   15   39 1
    36   15   40 1
    37   16   17 2
    38   16   18 1
    39   19   20 2
    40   19   21 1
@<TRIPOS>MOLECULE
ZINC58244731
   31    32     0     0     0
SMALL
USER_CHARGES

@<TRIPOS>ATOM
      1 C1         -0.0184    1.5028    0.0103 C.3       1 <0>        -0.1925
      2 C2          0.0021   -0.0041    0.0020 C.2       1 <0>         0.3781
      3 O1          1.0608   -0.5963   -0.0113 O.2       1 <0>        -0.4271
      4 C3         -1.2579   -0.7545    0.0100 C.ar      1 <0>        -0.2579
      5 C4         -2.4831   -0.0759    0.0195 C.ar      1 <0>        -0.0313
      6 C5         -3.6612   -0.7872    0.0265 C.ar      1 <0>        -0.2550
      7 C6         -3.6436   -2.1741    0.0242 C.ar      1 <0>        -0.0437
      8 C7         -2.4463   -2.8589    0.0149 C.ar      1 <0>        -0.2700
      9 C8         -1.2447   -2.1611    0.0023 C.ar      1 <0>         0.3279
     10 N1         -0.0395   -2.8473   -0.0129 N.2       1 <0>        -1.0340
     11 S1         -0.0297   -4.5033   -0.0218 S.o2      1 <0>         2.6351
     12 O2         -0.5662   -4.9194    1.2265 O.2       1 <0>        -1.0474
     13 O3         -0.5900   -4.9060   -1.2641 O.2       1 <0>        -1.0365
     14 C9          1.6565   -5.0142   -0.0407 C.2       1 <0>        -0.6935
     15 C10         2.4341   -5.2411   -1.1784 C.2       1 <0>        -0.0788
     16 C11         3.6875   -5.6243   -0.7399 C.2       1 <0>        -0.0530
     17 N2          3.6598   -5.6265    0.6380 N.pl3     1 <0>        -0.5188
     18 H1          4.4028   -5.8561    1.2178 H         1 <0>         0.4130
     19 C12         2.4309   -5.2510    1.0467 C.2       1 <0>         0.0799
     20 C13         4.8318   -5.9651   -1.5826 C.2       1 <0>         0.5546
     21 O4          5.8950   -6.2912   -1.0691 O.co2     1 <0>        -0.7064
     22 O5          4.7278   -5.9247   -2.8024 O.co2     1 <0>        -0.6773
     23 H2          1.0042    1.8801    0.0026 H         1 <0>         0.0663
     24 H3         -0.5455    1.8639   -0.8728 H         1 <0>         0.0754
     25 H4         -0.5286    1.8543    0.9071 H         1 <0>         0.0747
     26 H5         -2.5032    1.0039    0.0217 H         1 <0>         0.1069
     27 H6         -4.6050   -0.2624    0.0341 H         1 <0>         0.0996
     28 H7         -4.5744   -2.7220    0.0301 H         1 <0>         0.1002
     29 H8         -2.4427   -3.9389    0.0136 H         1 <0>         0.1014
     30 H9          2.1164   -5.1370   -2.2054 H         1 <0>         0.1428
     31 H10         2.1137   -5.1570    2.0748 H         1 <0>         0.1673
@<TRIPOS>BOND
     1    1    2 1
     2    1   23 1
     3    1   24 1
     4    1   25 1
     5    2    3 2
     6    2    4 1
     7    4    9 ar
     8    4    5 ar
     9    5    6 ar
    10    5   26 1
    11    6    7 ar
    12    6   27 1
    13    7    8 ar
    14    7   28 1
    15    8    9 ar
    16    8   29 1
    17    9   10 1
    18   10   11 1
    19   11   12 2
    20   11   13 2
    21   11   14 1
    22   14   19 2
    23   14   15 1
    24   15   16 2
    25   15   30 1
    26   16   17 1
    27   16   20 1
    28   17   18 1
    29   17   19 1
    30   19   31 1
    31   20   21 2
    32   20   22 1
@<TRIPOS>MOLECULE
ZINC15079848
   35    36     0     0     0
SMALL
USER_CHARGES
(1S,2S,4S,5S)-4-chloro-5-(4-nitrophenyl)sulfanyl-cyclohexane-1,2-dicarboxylic acid
@<TRIPOS>ATOM
      1 C1          4.9889    2.8271    3.8120 C.ar      1 <0>        -0.0257
      2 C2          4.4349    3.0231    2.5625 C.ar      1 <0>        -0.1337
      3 C3          4.6021    2.0629    1.5718 C.ar      1 <0>        -0.0250
      4 C4          5.3277    0.9089    1.8427 C.ar      1 <0>        -0.1074
      5 C5          5.8792    0.7200    3.0944 C.ar      1 <0>        -0.0329
      6 C6          5.7099    1.6773    4.0781 C.ar      1 <0>        -0.0704
      7 N1          6.3023    1.4710    5.4187 N.pl3     1 <0>         0.0415
      8 O1          6.1544    2.3133    6.2860 O.2       1 <0>        -0.1758
      9 O2          6.9375    0.4589    5.6546 O.3       1 <0>        -0.1781
     10 S1          3.8965    2.3082   -0.0239 S.3       1 <0>        -0.0331
     11 C7          3.2391    3.9976    0.0419 C.3       1 <0>        -0.0906
     12 H1          2.6278    4.1150    0.9367 H         1 <0>         0.0983
     13 C8          4.3987    4.9949    0.0820 C.3       1 <0>        -0.1017
     14 C9          5.2567    4.8301   -1.1740 C.3       1 <0>        -0.1050
     15 H2          5.6517    3.8150   -1.2136 H         1 <0>         0.0752
     16 C10         4.4006    5.0930   -2.4145 C.3       1 <0>        -0.1050
     17 H3          4.0056    6.1081   -2.3749 H         1 <0>         0.0753
     18 C11         3.2410    4.0957   -2.4546 C.3       1 <0>        -0.1063
     19 C12         2.3830    4.2605   -1.1986 C.3       1 <0>         0.0274
     20 H4          1.5569    3.5500   -1.2272 H         1 <0>         0.1003
     21 Cl1         1.7296    5.9397   -1.1331 Cl        1 <0>        -0.1688
     22 C13         5.2457    4.9307   -3.6517 C.2       1 <0>         0.4855
     23 O3          6.4130    4.6351   -3.5514 O.co2     1 <0>        -0.6162
     24 C14         6.3989    5.8124   -1.1345 C.2       1 <0>         0.4859
     25 O4          6.5162    6.6380   -2.0089 O.co2     1 <0>        -0.6151
     26 H5          4.8552    3.5707    4.5839 H         1 <0>         0.1524
     27 H6          3.8717    3.9210    2.3555 H         1 <0>         0.1496
     28 H7          5.4602    0.1609    1.0750 H         1 <0>         0.1508
     29 H8          6.4432   -0.1765    3.3056 H         1 <0>         0.1530
     30 H9          4.0037    6.0100    0.1216 H         1 <0>         0.0767
     31 H10         5.0086    4.8076    0.9658 H         1 <0>         0.0720
     32 H11         3.6360    3.0806   -2.4942 H         1 <0>         0.0729
     33 H12         2.6311    4.2830   -3.3384 H         1 <0>         0.0828
     34 O5          4.7018    5.1145   -4.8649 O.co2     1 <0>        -0.8041
     35 O6          7.2860    5.7702   -0.1280 O.co2     1 <0>        -0.8047
@<TRIPOS>BOND
     1    1    6 ar
     2    1    2 ar
     3    1   26 1
     4    2    3 ar
     5    2   27 1
     6    3    4 ar
     7    3   10 1
     8    4    5 ar
     9    4   28 1
    10    5    6 ar
    11    5   29 1
    12    6    7 1
    13    7    8 2
    14    7    9 1
    15   10   11 1
    16   11   12 1
    17   11   19 1
    18   11   13 1
    19   13   14 1
    20   13   30 1
    21   13   31 1
    22   14   15 1
    23   14   16 1
    24   14   24 1
    25   16   17 1
    26   16   18 1
    27   16   22 1
    28   18   19 1
    29   18   32 1
    30   18   33 1
    31   19   20 1
    32   19   21 1
    33   22   23 2
    34   22   34 1
    35   24   25 2
    36   24   35 1
@<TRIPOS>MOLECULE
ZINC20374024
   36    37     0     0     0
SMALL
USER_CHARGES
3-[(1R)-1-carboxypropyl]-2-ethyl-5-methyl-4-oxo-thieno[5,4-d]pyrimidine-6-carboxylic acid
@<TRIPOS>ATOM
      1 C1         -3.9110   -1.5103   -1.7299 C.3       1 <0>        -0.1303
      2 C2         -3.3446   -0.4653   -0.7665 C.3       1 <0>        -0.0777
      3 C3         -2.7110   -1.1594    0.4116 C.2       1 <0>         0.3949
      4 N1         -2.7178   -2.4640    0.4573 N.2       1 <0>        -0.5011
      5 C4         -2.1799   -3.1273    1.4726 C.2       1 <0>         0.0742
      6 C5         -1.5641   -2.4603    2.5567 C.2       1 <0>        -0.2390
      7 C6         -1.0384   -3.2811    3.5563 C.2       1 <0>        -0.0384
      8 C7         -1.1396   -4.6378    3.4442 C.2       1 <0>        -0.1822
      9 S1         -1.9987   -4.8423    1.8930 S.3       1 <0>         0.1416
     10 C8         -0.6616   -5.6694    4.3671 C.2       1 <0>         0.5391
     11 O1         -0.0885   -5.3506    5.3915 O.co2     1 <0>        -0.6073
     12 O2         -0.8570   -6.9732    4.0813 O.co2     1 <0>        -0.7499
     13 C9         -0.3611   -2.6708    4.7563 C.3       1 <0>        -0.1180
     14 C10        -1.5702   -0.9822    2.4664 C.2       1 <0>         0.5644
     15 O3         -1.0680   -0.3006    3.3422 O.2       1 <0>        -0.4938
     16 N2         -2.1450   -0.4109    1.3900 N.am      1 <0>        -0.5003
     17 C11        -2.1642    1.0497    1.2777 C.3       1 <0>         0.0769
     18 H1         -2.6861    1.3037    0.3433 H         1 <0>         0.1007
     19 C12        -0.7288    1.5792    1.2668 C.3       1 <0>        -0.1256
     20 C13        -0.0127    1.0858    0.0080 C.3       1 <0>        -0.1483
     21 C14        -2.9064    1.6341    2.4518 C.2       1 <0>         0.4671
     22 O4         -3.3716    0.9054    3.2959 O.co2     1 <0>        -0.6074
     23 O5         -3.0507    2.9642    2.5600 O.co2     1 <0>        -0.7643
     24 H2         -4.3735   -1.0037   -2.5898 H         1 <0>         0.0545
     25 H3         -4.6682   -2.1157   -1.2103 H         1 <0>         0.0656
     26 H4         -3.0985   -2.1627   -2.0822 H         1 <0>         0.0649
     27 H5         -2.5874    0.1401   -1.2861 H         1 <0>         0.0954
     28 H6         -4.1571    0.1872   -0.4142 H         1 <0>         0.0979
     29 H7         -0.0150   -3.4702    5.4280 H         1 <0>         0.1097
     30 H8         -1.0738   -2.0256    5.2909 H         1 <0>         0.0608
     31 H9          0.4999   -2.0712    4.4259 H         1 <0>         0.0553
     32 H10        -0.7437    2.6791    1.2729 H         1 <0>         0.0862
     33 H11        -0.1968    1.2148    2.1579 H         1 <0>         0.0855
     34 H12         1.0193    1.4665    0.0002 H         1 <0>         0.0531
     35 H13        -0.5447    1.4502   -0.8831 H         1 <0>         0.0507
     36 H14         0.0022   -0.0141    0.0019 H         1 <0>         0.0451
@<TRIPOS>BOND
     1    1    2 1
     2    1   24 1
     3    1   25 1
     4    1   26 1
     5    2    3 1
     6    2   27 1
     7    2   28 1
     8    3   16 1
     9    3    4 2
    10    4    5 1
    11    5    9 1
    12    5    6 2
    13    6    7 1
    14    6   14 1
    15    7    8 2
    16    7   13 1
    17    8    9 1
    18    8   10 1
    19   10   11 2
    20   10   12 1
    21   13   29 1
    22   13   30 1
    23   13   31 1
    24   14   15 2
    25   14   16 am
    26   16   17 1
    27   17   18 1
    28   17   19 1
    29   17   21 1
    30   19   20 1
    31   19   32 1
    32   19   33 1
    33   20   34 1
    34   20   35 1
    35   20   36 1
    36   21   22 2
    37   21   23 1
@<TRIPOS>MOLECULE
ZINC31159845
   47    47     0     0     0
SMALL
USER_CHARGES

@<TRIPOS>ATOM
      1 C1          8.8602    3.2065   -0.5822 C.2       1 <0>        -0.2054
      2 C2          8.1912    2.1125   -0.8499 C.2       1 <0>        -0.1460
      3 C3          8.7454    0.7716   -0.4425 C.3       1 <0>        -0.0979
      4 C4          7.7133    0.0308    0.4101 C.3       1 <0>        -0.1149
      5 C5          8.2760   -1.3305    0.8237 C.3       1 <0>        -0.1206
      6 C6          7.2439   -2.0713    1.6763 C.3       1 <0>        -0.1186
      7 C7          7.8066   -3.4326    2.0899 C.3       1 <0>        -0.1192
      8 C8          6.7745   -4.1734    2.9425 C.3       1 <0>        -0.1132
      9 C9          7.3372   -5.5347    3.3561 C.3       1 <0>        -0.1130
     10 C10         6.3051   -6.2755    4.2086 C.3       1 <0>        -0.0926
     11 C11         6.8678   -7.6368    4.6223 C.3       1 <0>        -0.1411
     12 H1          7.8256   -7.4970    5.1233 H         1 <0>         0.0416
     13 C12         7.0619   -8.4933    3.3976 C.2       1 <0>         0.5092
     14 O1          6.1463   -8.6419    2.6063 O.co2     1 <0>        -0.6688
     15 O2          8.1344   -9.0376    3.1980 O.co2     1 <0>        -0.7234
     16 C13         5.8890   -8.3249    5.5759 C.3       1 <0>         0.0564
     17 C14         5.6332   -7.4289    6.8109 C.3       1 <0>        -0.1319
     18 C15         5.6398   -8.4890    7.9479 C.3       1 <0>        -0.1871
     19 C16         6.6519   -9.4898    7.4002 C.2       1 <0>         0.4790
     20 O3          7.4684  -10.1127    8.0368 O.2       1 <0>        -0.4947
     21 O4          6.4581   -9.5438    6.0688 O.3       1 <0>        -0.3027
     22 C17         4.5909   -8.6108    4.8657 C.2       1 <0>         0.5339
     23 O5          4.1935   -9.7586    4.7605 O.co2     1 <0>        -0.6844
     24 O6          3.9381   -7.6942    4.3963 O.co2     1 <0>        -0.6795
     25 H2          9.8089    3.1475   -0.0695 H         1 <0>         0.0945
     26 H3          8.4651    4.1671   -0.8781 H         1 <0>         0.0932
     27 H4          7.2424    2.1714   -1.3625 H         1 <0>         0.1068
     28 H5          8.9690    0.1850   -1.3335 H         1 <0>         0.0721
     29 H6          9.6580    0.9162    0.1359 H         1 <0>         0.0651
     30 H7          7.4897    0.6174    1.3011 H         1 <0>         0.0605
     31 H8          6.8007   -0.1138   -0.1682 H         1 <0>         0.0624
     32 H9          8.4996   -1.9172   -0.0673 H         1 <0>         0.0615
     33 H10         9.1886   -1.1859    1.4020 H         1 <0>         0.0589
     34 H11         7.0203   -1.4847    2.5673 H         1 <0>         0.0575
     35 H12         6.3313   -2.2159    1.0980 H         1 <0>         0.0609
     36 H13         8.0302   -4.0193    1.1989 H         1 <0>         0.0606
     37 H14         8.7192   -3.2881    2.6682 H         1 <0>         0.0554
     38 H15         6.5509   -3.5868    3.8335 H         1 <0>         0.0521
     39 H16         5.8619   -4.3180    2.3642 H         1 <0>         0.0621
     40 H17         7.5608   -6.1214    2.4650 H         1 <0>         0.0636
     41 H18         8.2498   -5.3902    3.9344 H         1 <0>         0.0424
     42 H19         6.0815   -5.6889    5.0997 H         1 <0>         0.0348
     43 H20         5.3925   -6.4201    3.6303 H         1 <0>         0.1058
     44 H21         6.4365   -6.7044    6.9442 H         1 <0>         0.0721
     45 H22         4.6655   -6.9319    6.7424 H         1 <0>         0.0955
     46 H23         5.9836   -8.0561    8.8873 H         1 <0>         0.0904
     47 H24         4.6575   -8.9469    8.0644 H         1 <0>         0.1067
@<TRIPOS>BOND
     1    1    2 2
     2    1   25 1
     3    1   26 1
     4    2    3 1
     5    2   27 1
     6    3    4 1
     7    3   28 1
     8    3   29 1
     9    4    5 1
    10    4   30 1
    11    4   31 1
    12    5    6 1
    13    5   32 1
    14    5   33 1
    15    6    7 1
    16    6   34 1
    17    6   35 1
    18    7    8 1
    19    7   36 1
    20    7   37 1
    21    8    9 1
    22    8   38 1
    23    8   39 1
    24    9   10 1
    25    9   40 1
    26    9   41 1
    27   10   11 1
    28   10   42 1
    29   10   43 1
    30   11   12 1
    31   11   13 1
    32   11   16 1
    33   13   14 2
    34   13   15 1
    35   16   21 1
    36   16   17 1
    37   16   22 1
    38   17   18 1
    39   17   44 1
    40   17   45 1
    41   18   19 1
    42   18   46 1
    43   18   47 1
    44   19   20 2
    45   19   21 1
    46   22   23 2
    47   22   24 1
@<TRIPOS>MOLECULE
ZINC50922580
   35    36     0     0     0
SMALL
USER_CHARGES

@<TRIPOS>ATOM
      1 C1         -2.6098    1.3283   -0.2032 C.ar      1 <0>        -0.0427
      2 C2         -3.8384    1.9611   -0.1200 C.ar      1 <0>        -0.2391
      3 C3         -4.9449    1.1977    0.2455 C.ar      1 <0>         0.3724
      4 O1         -6.1669    1.7760    0.3389 O.3       1 <0>        -0.6897
      5 N1         -4.8014   -0.0965    0.5016 N.ar      1 <0>        -0.3522
      6 N2         -3.6640   -0.6866    0.4255 N.ar      1 <0>        -0.1586
      7 C4         -2.5554   -0.0400    0.0852 C.ar      1 <0>        -0.1218
      8 C5         -1.2673   -0.7637    0.0105 C.2       1 <0>         0.5947
      9 O2         -0.2308   -0.1460   -0.1358 O.2       1 <0>        -0.5709
     10 N3         -1.2431   -2.1079    0.1048 N.am      1 <0>        -0.5968
     11 C6          0.0334   -2.8284    0.2058 C.3       1 <0>         0.1127
     12 C7          0.0833   -3.8990   -0.8888 C.3       1 <0>        -0.1251
     13 C8         -1.1537   -4.7933   -0.7788 C.3       1 <0>        -0.0906
     14 C9         -2.4145   -3.9506   -0.9845 C.3       1 <0>        -0.1294
     15 C10        -2.4929   -2.8803    0.1147 C.3       1 <0>         0.0752
     16 C11        -1.0901   -5.8851   -1.8489 C.3       1 <0>        -0.0845
     17 C12        -2.2606   -6.8523   -1.6608 C.3       1 <0>        -0.1829
     18 C13        -2.1979   -7.9276   -2.7147 C.2       1 <0>         0.4888
     19 O3         -1.3004   -7.9210   -3.5399 O.co2     1 <0>        -0.7031
     20 O4         -3.0448   -8.8043   -2.7423 O.co2     1 <0>        -0.7137
     21 H1         -1.7213    1.8731   -0.4863 H         1 <0>         0.1275
     22 H2         -3.9360    3.0156   -0.3318 H         1 <0>         0.1232
     23 H3          0.8590   -2.1296    0.0714 H         1 <0>         0.0842
     24 H4          0.1089   -3.3026    1.1844 H         1 <0>         0.0596
     25 H5          0.0990   -3.4185   -1.8671 H         1 <0>         0.0634
     26 H6          0.9817   -4.5038   -0.7655 H         1 <0>         0.0677
     27 H7         -1.1820   -5.2542    0.2086 H         1 <0>         0.0635
     28 H8         -2.3753   -3.4697   -1.9619 H         1 <0>         0.0596
     29 H9         -3.2940   -4.5922   -0.9293 H         1 <0>         0.0759
     30 H10        -2.6192   -3.3586    1.0860 H         1 <0>         0.0590
     31 H11        -3.3347   -2.2157   -0.0798 H         1 <0>         0.1498
     32 H12        -1.1507   -5.4292   -2.8371 H         1 <0>         0.0562
     33 H13        -0.1504   -6.4296   -1.7570 H         1 <0>         0.0544
     34 H14        -2.1999   -7.3082   -0.6725 H         1 <0>         0.0530
     35 H15        -3.2003   -6.3078   -1.7527 H         1 <0>         0.0601
@<TRIPOS>BOND
     1    1    7 ar
     2    1    2 ar
     3    1   21 1
     4    2    3 ar
     5    2   22 1
     6    3    4 1
     7    3    5 ar
     8    5    6 ar
     9    6    7 ar
    10    7    8 1
    11    8    9 2
    12    8   10 am
    13   10   15 1
    14   10   11 1
    15   11   12 1
    16   11   23 1
    17   11   24 1
    18   12   13 1
    19   12   25 1
    20   12   26 1
    21   13   14 1
    22   13   16 1
    23   13   27 1
    24   14   15 1
    25   14   28 1
    26   14   29 1
    27   15   30 1
    28   15   31 1
    29   16   17 1
    30   16   32 1
    31   16   33 1
    32   17   18 1
    33   17   34 1
    34   17   35 1
    35   18   19 2
    36   18   20 1
@<TRIPOS>MOLECULE
ZINC16899529
   30    31     0     0     0
SMALL
USER_CHARGES

@<TRIPOS>ATOM
      1 C1          0.8353    1.3792    1.1548 C.ar      1 <0>        -0.1298
      2 C2          1.1800    2.0891    0.0229 C.ar      1 <0>        -0.0753
      3 C3          1.5454    1.4104   -1.1424 C.ar      1 <0>        -0.1288
      4 C4          1.5598    0.0141   -1.1553 C.ar      1 <0>        -0.0614
      5 C5          1.2118   -0.6879   -0.0131 C.ar      1 <0>         0.0859
      6 C6          0.8499   -0.0031    1.1407 C.ar      1 <0>        -0.1039
      7 N1          1.2242   -2.0901   -0.0212 N.am      1 <0>        -0.5190
      8 C7          2.3516   -2.8040   -0.1286 C.2       1 <0>         0.5299
      9 O1          3.4681   -2.3425   -0.2289 O.2       1 <0>        -0.4725
     10 C8          2.0115   -4.2783   -0.1046 C.3       1 <0>        -0.1247
     11 C9          0.4758   -4.2927    0.0369 C.3       1 <0>        -0.1382
     12 H1          0.0159   -4.7789   -0.8234 H         1 <0>         0.1322
     13 C10         0.1102   -2.8251    0.0836 C.2       1 <0>         0.5349
     14 O2         -1.0137   -2.3847    0.1955 O.2       1 <0>        -0.4624
     15 S1         -0.0159   -5.1206    1.5742 S.3       1 <0>        -0.1402
     16 C11        -1.8270   -5.1718    1.4852 C.3       1 <0>        -0.1590
     17 C12        -2.3718   -5.8443    2.7189 C.2       1 <0>         0.5141
     18 O3         -1.6090   -6.2513    3.5785 O.co2     1 <0>        -0.6757
     19 O4         -3.5754   -5.9813    2.8574 O.co2     1 <0>        -0.6875
     20 C13         1.9142    2.1662   -2.3548 C.2       1 <0>         0.5249
     21 O5          1.9004    3.3889   -2.3410 O.co2     1 <0>        -0.6876
     22 O6          2.2336    1.5698   -3.3735 O.co2     1 <0>        -0.6857
     23 H2          0.5575    1.9053    2.0561 H         1 <0>         0.1235
     24 H3          1.1671    3.1689    0.0377 H         1 <0>         0.1311
     25 H4          1.8409   -0.5166   -2.0530 H         1 <0>         0.1282
     26 H5          0.5790   -0.5530    2.0299 H         1 <0>         0.1201
     27 H6          2.3155   -4.7573   -1.0353 H         1 <0>         0.1279
     28 H7          2.4801   -4.7662    0.7501 H         1 <0>         0.1291
     29 H8         -2.2166   -4.1556    1.4232 H         1 <0>         0.0913
     30 H9         -2.1317   -5.7322    0.6013 H         1 <0>         0.0786
@<TRIPOS>BOND
     1    1    6 ar
     2    1    2 ar
     3    1   23 1
     4    2    3 ar
     5    2   24 1
     6    3    4 ar
     7    3   20 1
     8    4    5 ar
     9    4   25 1
    10    5    6 ar
    11    5    7 1
    12    6   26 1
    13    7   13 am
    14    7    8 am
    15    8    9 2
    16    8   10 1
    17   10   11 1
    18   10   27 1
    19   10   28 1
    20   11   12 1
    21   11   13 1
    22   11   15 1
    23   13   14 2
    24   15   16 1
    25   16   17 1
    26   16   29 1
    27   16   30 1
    28   17   18 2
    29   17   19 1
    30   20   21 2
    31   20   22 1
@<TRIPOS>MOLECULE
ZINC13317662
   41    42     0     0     0
SMALL
USER_CHARGES
5-[[[2-(4-carboxyphenoxy)acetyl]amino]methyl]-2-methoxy-benzoic acid
@<TRIPOS>ATOM
      1 C1          8.5894   10.8278    1.2908 C.3       1 <0>         0.0219
      2 O1          8.0139   10.5356    0.0159 O.3       1 <0>        -0.2715
      3 C2          6.8157    9.9000    0.0122 C.ar      1 <0>         0.1645
      4 C3          6.2026    9.5620    1.2097 C.ar      1 <0>        -0.2335
      5 C4          4.9806    8.9197    1.2045 C.ar      1 <0>        -0.0618
      6 C5          4.3627    8.5978    0.0067 C.ar      1 <0>        -0.1742
      7 C6          4.9568    8.9258   -1.1922 C.ar      1 <0>        -0.0175
      8 C7          6.1913    9.5812   -1.2018 C.ar      1 <0>        -0.1504
      9 C8          6.8330    9.9348   -2.4808 C.2       1 <0>         0.4914
     10 O2          7.9062   10.5046   -2.4850 O.co2     1 <0>        -0.6150
     11 C9          3.0317    7.8911    0.0156 C.3       1 <0>         0.1754
     12 N1          3.2481    6.4422    0.0057 N.am      1 <0>        -0.7213
     13 C10         2.1933    5.6033    0.0113 C.2       1 <0>         0.5166
     14 O3          1.0650    6.0478    0.0245 O.2       1 <0>        -0.5231
     15 C11         2.4158    4.1128    0.0011 C.3       1 <0>         0.0412
     16 O4          1.1537    3.4427    0.0096 O.3       1 <0>        -0.2930
     17 C12         1.1765    2.0859    0.0020 C.ar      1 <0>         0.1202
     18 C13        -0.0166    1.3726    0.0096 C.ar      1 <0>        -0.1644
     19 C14         0.0021   -0.0041    0.0020 C.ar      1 <0>        -0.0485
     20 C15         1.2232   -0.6845   -0.0133 C.ar      1 <0>        -0.1523
     21 C16         2.4207    0.0368   -0.0210 C.ar      1 <0>        -0.0383
     22 C17         2.3930    1.4132   -0.0133 C.ar      1 <0>        -0.2264
     23 C18         1.2480   -2.1589   -0.0210 C.2       1 <0>         0.4936
     24 O5          0.2061   -2.7841   -0.0140 O.co2     1 <0>        -0.6369
     25 H1          8.7488    9.8992    1.8389 H         1 <0>         0.0481
     26 H2          9.5438   11.3355    1.1509 H         1 <0>         0.0939
     27 H3          7.9147   11.4716    1.8551 H         1 <0>         0.0474
     28 H4          6.6799    9.8055    2.1474 H         1 <0>         0.1234
     29 H5          4.5054    8.6626    2.1396 H         1 <0>         0.1190
     30 H6          4.4693    8.6771   -2.1232 H         1 <0>         0.1387
     31 H7          2.4614    8.1793   -0.8674 H         1 <0>         0.0763
     32 H8          2.4784    8.1697    0.9125 H         1 <0>         0.0723
     33 H9          4.1505    6.0866   -0.0048 H         1 <0>         0.4040
     34 H10         2.9862    3.8246    0.8841 H         1 <0>         0.0911
     35 H11         2.9691    3.8342   -0.8957 H         1 <0>         0.0935
     36 H12        -0.9596    1.8990    0.0169 H         1 <0>         0.1259
     37 H13        -0.9253   -0.5575    0.0083 H         1 <0>         0.1333
     38 H14         3.3661   -0.4851   -0.0325 H         1 <0>         0.1331
     39 H15         3.3177    1.9712   -0.0195 H         1 <0>         0.1229
     40 O6          6.2295    9.6261   -3.6454 O.co2     1 <0>        -0.7601
     41 O7          2.4260   -2.8129   -0.0358 O.co2     1 <0>        -0.7596
@<TRIPOS>BOND
     1    1    2 1
     2    1   25 1
     3    1   26 1
     4    1   27 1
     5    2    3 1
     6    3    8 ar
     7    3    4 ar
     8    4    5 ar
     9    4   28 1
    10    5    6 ar
    11    5   29 1
    12    6    7 ar
    13    6   11 1
    14    7    8 ar
    15    7   30 1
    16    8    9 1
    17    9   10 2
    18    9   40 1
    19   11   12 1
    20   11   31 1
    21   11   32 1
    22   12   13 am
    23   12   33 1
    24   13   14 2
    25   13   15 1
    26   15   16 1
    27   15   34 1
    28   15   35 1
    29   16   17 1
    30   17   22 ar
    31   17   18 ar
    32   18   19 ar
    33   18   36 1
    34   19   20 ar
    35   19   37 1
    36   20   21 ar
    37   20   23 1
    38   21   22 ar
    39   21   38 1
    40   22   39 1
    41   23   24 2
    42   23   41 1
@<TRIPOS>MOLECULE
ZINC21503401
   26    27     0     0     0
SMALL
USER_CHARGES
4-[(2,3-dichlorophenyl)sulfamoyl]-1H-pyrrole-2-carboxylic acid
@<TRIPOS>ATOM
      1 C1          1.3957   -0.4697    0.4046 C.ar      1 <0>        -0.0735
      2 C2          0.1485    0.1042    0.2501 C.ar      1 <0>        -0.2380
      3 C3          0.0243    1.4854    0.1812 C.ar      1 <0>         0.2766
      4 C4          1.1565    2.2872    0.2680 C.ar      1 <0>        -0.0786
      5 C5          2.4018    1.7066    0.4236 C.ar      1 <0>         0.0046
      6 C6          2.5206    0.3291    0.4913 C.ar      1 <0>        -0.2006
      7 Cl1         3.8172    2.7058    0.5334 Cl        1 <0>        -0.0949
      8 Cl2         1.0072    4.0146    0.1819 Cl        1 <0>        -0.0692
      9 N1         -1.2355    2.0681    0.0192 N.2       1 <0>        -1.0619
     10 S1         -2.5619    1.3861    0.7388 S.o2      1 <0>         2.6387
     11 O1         -3.6499    2.2699    0.5056 O.2       1 <0>        -1.0014
     12 O2         -2.5872    0.0237    0.3357 O.2       1 <0>        -1.0542
     13 C7         -2.2722    1.3917    2.4768 C.2       1 <0>        -0.7390
     14 C8         -2.6189    2.4133    3.3660 C.2       1 <0>        -0.0798
     15 C9         -2.2123    2.0098    4.6214 C.2       1 <0>        -0.0435
     16 N2         -1.6317    0.7682    4.4888 N.pl3     1 <0>        -0.5310
     17 H1         -1.2283    0.2524    5.3727 H         1 <0>         0.4422
     18 C10        -1.6791    0.4042    3.1900 C.2       1 <0>         0.0926
     19 C11        -2.3690    2.7644    5.8671 C.2       1 <0>         0.5243
     20 O3         -2.9017    3.8577    5.8529 O.co2     1 <0>        -0.6245
     21 O4         -1.9225    2.2468    7.0300 O.co2     1 <0>        -0.7771
     22 H2          1.4920   -1.5441    0.4582 H         1 <0>         0.1139
     23 H3         -0.7295   -0.5212    0.1833 H         1 <0>         0.1569
     24 H4          3.4941   -0.1225    0.6124 H         1 <0>         0.1156
     25 H5         -3.1112    3.3419    3.1175 H         1 <0>         0.1389
     26 H6         -1.3031   -0.5235    2.7845 H         1 <0>         0.1630
@<TRIPOS>BOND
     1    1    6 ar
     2    1    2 ar
     3    1   22 1
     4    2    3 ar
     5    2   23 1
     6    3    4 ar
     7    3    9 1
     8    4    5 ar
     9    4    8 1
    10    5    6 ar
    11    5    7 1
    12    6   24 1
    13    9   10 1
    14   10   11 2
    15   10   12 2
    16   10   13 1
    17   13   18 2
    18   13   14 1
    19   14   15 2
    20   14   25 1
    21   15   16 1
    22   15   19 1
    23   16   17 1
    24   16   18 1
    25   18   26 1
    26   19   20 2
    27   19   21 1
@<TRIPOS>MOLECULE
ZINC20170800
   34    37     0     0     0
SMALL
USER_CHARGES

@<TRIPOS>ATOM
      1 C1         -0.0162    1.3428    0.0094 C.2       1 <0>        -0.2145
      2 C2          1.3261    1.7738   -0.0011 C.2       1 <0>        -0.1788
      3 C3          2.0966    0.6546   -0.0144 C.2       1 <0>         0.0769
      4 O1          1.2804   -0.4166   -0.0124 O.3       1 <0>        -0.1640
      5 C4          0.0021   -0.0041    0.0020 C.2       1 <0>        -0.0384
      6 C5          3.5751    0.6190   -0.0292 C.2       1 <0>         0.1297
      7 C6          4.3705   -0.5402   -0.0486 C.2       1 <0>        -0.2177
      8 C7          5.6796   -0.1471   -0.0574 C.2       1 <0>         0.2018
      9 N1          5.6987    1.2187   -0.0438 N.pl3     1 <0>        -0.4527
     10 H1          6.4912    1.7782   -0.0461 H         1 <0>         0.4470
     11 N2          4.3726    1.6691   -0.0321 N.2       1 <0>        -0.2542
     12 C8          6.8553   -1.0344   -0.0774 C.2       1 <0>         0.1540
     13 N3          6.8662   -2.3235    0.1778 N.2       1 <0>        -0.2471
     14 N4          8.0609   -2.7838    0.0691 N.2       1 <0>        -0.3387
     15 C9          8.8903   -1.8196   -0.2624 C.2       1 <0>         0.3916
     16 N5          8.1530   -0.6709   -0.3734 N.pl3     1 <0>        -0.4409
     17 C10         8.6177    0.6020   -0.7121 C.ar      1 <0>         0.1155
     18 C11         8.1901    1.2057   -1.8903 C.ar      1 <0>        -0.1332
     19 C12         8.6456    2.4600   -2.2277 C.ar      1 <0>        -0.0777
     20 C13         9.5396    3.1277   -1.3841 C.ar      1 <0>        -0.1253
     21 C14         9.9670    2.5171   -0.2004 C.ar      1 <0>        -0.0750
     22 C15         9.5023    1.2650    0.1325 C.ar      1 <0>        -0.0981
     23 C16        10.0299    4.4698   -1.7415 C.2       1 <0>         0.5237
     24 O2          9.6554    5.0021   -2.7773 O.co2     1 <0>        -0.6889
     25 O3         10.8117    5.0522   -1.0025 O.co2     1 <0>        -0.6874
     26 S1         10.6259   -1.9770   -0.5223 S.3       1 <0>        -0.7804
     27 H2         -0.8930    1.9731    0.0252 H         1 <0>         0.1489
     28 H3          1.6746    2.7961    0.0008 H         1 <0>         0.1542
     29 H4         -0.8667   -0.6457    0.0069 H         1 <0>         0.2040
     30 H5          4.0115   -1.5588   -0.0554 H         1 <0>         0.1606
     31 H6          7.5002    0.6894   -2.5412 H         1 <0>         0.1156
     32 H7          8.3134    2.9278   -3.1427 H         1 <0>         0.1328
     33 H8         10.6571    3.0293    0.4537 H         1 <0>         0.1342
     34 H9          9.8283    0.7947    1.0484 H         1 <0>         0.1225
@<TRIPOS>BOND
     1    1    5 2
     2    1    2 1
     3    1   27 1
     4    2    3 2
     5    2   28 1
     6    3    4 1
     7    3    6 1
     8    4    5 1
     9    5   29 1
    10    6   11 2
    11    6    7 1
    12    7    8 2
    13    7   30 1
    14    8    9 1
    15    8   12 1
    16    9   10 1
    17    9   11 1
    18   12   16 1
    19   12   13 2
    20   13   14 1
    21   14   15 2
    22   15   26 1
    23   15   16 1
    24   16   17 1
    25   17   22 ar
    26   17   18 ar
    27   18   19 ar
    28   18   31 1
    29   19   20 ar
    30   19   32 1
    31   20   21 ar
    32   20   23 1
    33   21   22 ar
    34   21   33 1
    35   22   34 1
    36   23   24 2
    37   23   25 1
@<TRIPOS>MOLECULE
ZINC62639841
   36    37     0     0     0
SMALL
USER_CHARGES

@<TRIPOS>ATOM
      1 C1         -0.0187    1.5258    0.0104 C.3       1 <0>        -0.1463
      2 C2          0.0021   -0.0041    0.0020 C.3       1 <0>         0.0577
      3 O1         -1.3386   -0.4987    0.0122 O.3       1 <0>        -0.3261
      4 C3         -1.4984   -1.8493    0.0064 C.ar      1 <0>         0.0005
      5 C4         -0.3867   -2.6789   -0.0029 C.ar      1 <0>        -0.1391
      6 C5         -0.5481   -4.0503   -0.0092 C.ar      1 <0>        -0.2402
      7 C6         -1.8239   -4.5989   -0.0057 C.ar      1 <0>         0.2644
      8 C7         -2.9361   -3.7679    0.0041 C.ar      1 <0>        -0.1568
      9 C8         -2.7728   -2.3963    0.0157 C.ar      1 <0>        -0.0738
     10 C9         -3.9797   -1.4940    0.0320 C.3       1 <0>        -0.0925
     11 N1         -1.9884   -5.9886   -0.0125 N.2       1 <0>        -1.0931
     12 S1         -0.6616   -6.9794   -0.0248 S.o2      1 <0>         2.6408
     13 O2         -0.0130   -6.7742   -1.2723 O.2       1 <0>        -1.0517
     14 O3         -0.0002   -6.7879    1.2183 O.2       1 <0>        -1.0408
     15 C10        -1.2513   -8.6398   -0.0309 C.2       1 <0>        -0.6952
     16 C11        -1.5259   -9.4188    1.0952 C.2       1 <0>        -0.0810
     17 C12        -1.9632  -10.6476    0.6382 C.2       1 <0>        -0.0538
     18 N2         -1.9502  -10.6041   -0.7392 N.pl3     1 <0>        -0.5197
     19 H1         -2.2086  -11.3287   -1.3301 H         1 <0>         0.4129
     20 C13        -1.5245   -9.3857   -1.1297 C.2       1 <0>         0.0767
     21 C14        -2.3650  -11.7846    1.4639 C.2       1 <0>         0.5540
     22 O4         -2.7356  -12.8252    0.9346 O.co2     1 <0>        -0.7062
     23 O5         -2.3312  -11.6968    2.6852 O.co2     1 <0>        -0.6771
     24 H2          1.0039    1.9031    0.0027 H         1 <0>         0.0667
     25 H3         -0.5459    1.8868   -0.8726 H         1 <0>         0.0599
     26 H4         -0.5289    1.8773    0.9072 H         1 <0>         0.0601
     27 H5          0.5123   -0.3556   -0.8948 H         1 <0>         0.0502
     28 H6          0.5293   -0.3651    0.8851 H         1 <0>         0.0506
     29 H7          0.6054   -2.2521   -0.0056 H         1 <0>         0.1034
     30 H8          0.3176   -4.6960   -0.0172 H         1 <0>         0.0994
     31 H9         -3.9286   -4.1937    0.0069 H         1 <0>         0.1177
     32 H10        -4.2805   -1.2710   -0.9916 H         1 <0>         0.0546
     33 H11        -4.7986   -1.9921    0.5510 H         1 <0>         0.0555
     34 H12        -3.7329   -0.5664    0.5485 H         1 <0>         0.0575
     35 H13        -1.4173   -9.1182    2.1269 H         1 <0>         0.1432
     36 H14        -1.4157   -9.0577   -2.1529 H         1 <0>         0.1677
@<TRIPOS>BOND
     1    1    2 1
     2    1   24 1
     3    1   25 1
     4    1   26 1
     5    2    3 1
     6    2   27 1
     7    2   28 1
     8    3    4 1
     9    4    9 ar
    10    4    5 ar
    11    5    6 ar
    12    5   29 1
    13    6    7 ar
    14    6   30 1
    15    7    8 ar
    16    7   11 1
    17    8    9 ar
    18    8   31 1
    19    9   10 1
    20   10   32 1
    21   10   33 1
    22   10   34 1
    23   11   12 1
    24   12   13 2
    25   12   14 2
    26   12   15 1
    27   15   20 2
    28   15   16 1
    29   16   17 2
    30   16   35 1
    31   17   18 1
    32   17   21 1
    33   18   19 1
    34   18   20 1
    35   20   36 1
    36   21   22 2
    37   21   23 1
@<TRIPOS>MOLECULE
ZINC65355946
   27    28     0     0     0
SMALL
USER_CHARGES

@<TRIPOS>ATOM
      1 C1          0.0458    1.2416    0.5718 C.ar      1 <0>        -0.0395
      2 C2          0.9723    2.0501   -0.0530 C.ar      1 <0>        -0.2537
      3 C3          2.1149    1.4768   -0.6164 C.ar      1 <0>         0.3760
      4 N1          2.3209    0.1745   -0.5597 N.ar      1 <0>        -0.5058
      5 C4          1.4561   -0.6432    0.0319 C.ar      1 <0>         0.1507
      6 C5          0.2866   -0.1370    0.6191 C.ar      1 <0>        -0.1251
      7 C6         -0.6783   -1.0469    1.2794 C.ar      1 <0>         0.0057
      8 C7         -0.2586   -1.8728    2.3184 C.ar      1 <0>        -0.0255
      9 C8         -1.1721   -2.7267    2.9361 C.ar      1 <0>        -0.1116
     10 C9         -2.5029   -2.7483    2.5086 C.ar      1 <0>        -0.1214
     11 C10        -2.9124   -1.9253    1.4762 C.ar      1 <0>         0.0583
     12 C11        -2.0103   -1.0730    0.8645 C.ar      1 <0>        -0.1500
     13 F1         -4.1994   -1.9499    1.0661 F         1 <0>        -0.1611
     14 C12        -0.7348   -3.6056    4.0379 C.2       1 <0>         0.5279
     15 O1          0.4298   -3.5858    4.4104 O.co2     1 <0>        -0.6811
     16 O2         -1.5370   -4.3538    4.5784 O.co2     1 <0>        -0.6995
     17 C13         1.7276   -2.0941    0.0709 C.2       1 <0>         0.5297
     18 O3          2.8792   -2.5022    0.0187 O.co2     1 <0>        -0.6703
     19 O4          0.8009   -2.8875    0.1556 O.co2     1 <0>        -0.6477
     20 N2          3.0484    2.2900   -1.2463 N.pl3     1 <0>        -0.8628
     21 H1         -0.8428    1.6628    1.0183 H         1 <0>         0.1270
     22 H2          0.8156    3.1173   -0.1067 H         1 <0>         0.1181
     23 H3          0.7707   -1.8526    2.6448 H         1 <0>         0.1228
     24 H4         -3.2118   -3.4091    2.9853 H         1 <0>         0.1288
     25 H5         -2.3370   -0.4291    0.0614 H         1 <0>         0.1153
     26 H6          2.9043    3.2481   -1.2926 H         1 <0>         0.3970
     27 H7          3.8444    1.8998   -1.6400 H         1 <0>         0.3979
@<TRIPOS>BOND
     1    1    6 ar
     2    1    2 ar
     3    1   21 1
     4    2    3 ar
     5    2   22 1
     6    3    4 ar
     7    3   20 1
     8    4    5 ar
     9    5    6 ar
    10    5   17 1
    11    6    7 1
    12    7   12 ar
    13    7    8 ar
    14    8    9 ar
    15    8   23 1
    16    9   10 ar
    17    9   14 1
    18   10   11 ar
    19   10   24 1
    20   11   12 ar
    21   11   13 1
    22   12   25 1
    23   14   15 2
    24   14   16 1
    25   17   18 2
    26   17   19 1
    27   20   26 1
    28   20   27 1
@<TRIPOS>MOLECULE
ZINC03287680
   33    34     0     0     0
SMALL
USER_CHARGES
2-(benzo[1,3]dioxol-5-ylcarbamoylmethylsulfanyl)butanedioic acid
@<TRIPOS>ATOM
      1 C1          1.2758   -1.8856   -0.8175 C.ar      1 <0>        -0.1419
      2 C2          2.4765   -2.5590   -0.9412 C.ar      1 <0>        -0.0796
      3 C3          3.6245   -2.0449   -0.3612 C.ar      1 <0>         0.0005
      4 C4          3.5697   -0.8452    0.3450 C.ar      1 <0>         0.0543
      5 C5          2.3674   -0.1692    0.4646 C.ar      1 <0>        -0.1061
      6 C6          1.2191   -0.6875   -0.1190 C.ar      1 <0>         0.1772
      7 N1          0.0021   -0.0041    0.0020 N.am      1 <0>        -0.6759
      8 C7         -0.0164    1.3436    0.0076 C.2       1 <0>         0.5388
      9 O1          1.0255    1.9644   -0.0077 O.2       1 <0>        -0.4896
     10 C8         -1.3316    2.0790    0.0265 C.3       1 <0>        -0.1386
     11 S1         -1.0246    3.8669    0.0298 S.3       1 <0>        -0.1391
     12 C9         -2.6849    4.5972    0.0529 C.3       1 <0>        -0.0792
     13 H1         -3.2650    4.2072   -0.7835 H         1 <0>         0.0767
     14 C10        -2.5747    6.1184   -0.0682 C.3       1 <0>        -0.1217
     15 C11        -2.0010    6.4749   -1.4154 C.2       1 <0>         0.4609
     16 O2         -1.7102    5.6018   -2.1983 O.co2     1 <0>        -0.6226
     17 C12        -3.3708    4.2447    1.3476 C.2       1 <0>         0.4707
     18 O3         -4.2995    3.4717    1.3484 O.co2     1 <0>        -0.6537
     19 O4          4.8190   -0.5575    0.8138 O.3       1 <0>        -0.3056
     20 C13         5.5528   -1.7940    0.7376 C.3       1 <0>         0.2135
     21 O5          4.9092   -2.5082   -0.3342 O.3       1 <0>        -0.3132
     22 H2          0.3813   -2.2906   -1.2674 H         1 <0>         0.1418
     23 H3          2.5191   -3.4888   -1.4889 H         1 <0>         0.1361
     24 H4          2.3226    0.7608    1.0119 H         1 <0>         0.1564
     25 H5         -0.8273   -0.5008    0.0818 H         1 <0>         0.4155
     26 H6         -1.9103    1.8114   -0.8576 H         1 <0>         0.1062
     27 H7         -1.8886    1.8044    0.9222 H         1 <0>         0.1081
     28 H8         -3.5642    6.5637    0.0347 H         1 <0>         0.0694
     29 H9         -1.9215    6.4990    0.7171 H         1 <0>         0.0770
     30 H10         5.4677   -2.3480    1.6724 H         1 <0>         0.0800
     31 H11         6.5989   -1.6043    0.4975 H         1 <0>         0.1272
     32 O6         -1.8132    7.7623   -1.7455 O.co2     1 <0>        -0.7930
     33 O7         -2.9501    4.7894    2.5000 O.co2     1 <0>        -0.7506
@<TRIPOS>BOND
     1    1    6 ar
     2    1    2 ar
     3    1   22 1
     4    2    3 ar
     5    2   23 1
     6    3   21 1
     7    3    4 ar
     8    4    5 ar
     9    4   19 1
    10    5    6 ar
    11    5   24 1
    12    6    7 1
    13    7    8 am
    14    7   25 1
    15    8    9 2
    16    8   10 1
    17   10   11 1
    18   10   26 1
    19   10   27 1
    20   11   12 1
    21   12   13 1
    22   12   14 1
    23   12   17 1
    24   14   15 1
    25   14   28 1
    26   14   29 1
    27   15   16 2
    28   15   32 1
    29   17   18 2
    30   17   33 1
    31   19   20 1
    32   20   21 1
    33   20   30 1
    34   20   31 1
@<TRIPOS>MOLECULE
ZINC19904356
   35    37     0     0     0
SMALL
USER_CHARGES
2-methyl-3-[5-[(2,4,6-trioxohexahydropyrimidin-5-ylidene)methyl]-2-furyl]benzoic acid
@<TRIPOS>ATOM
      1 C1          1.4542   -2.8669   -0.3556 C.3       1 <0>        -0.0982
      2 C2          1.1891   -1.3837   -0.3826 C.ar      1 <0>        -0.0166
      3 C3          2.1706   -0.4884    0.0431 C.ar      1 <0>        -0.0534
      4 C4          1.9173    0.8863    0.0146 C.ar      1 <0>        -0.0845
      5 C5          0.6995    1.3577   -0.4334 C.ar      1 <0>        -0.1519
      6 C6         -0.2762    0.4770   -0.8561 C.ar      1 <0>        -0.0634
      7 C7         -0.0372   -0.9000   -0.8333 C.ar      1 <0>        -0.1252
      8 C8         -1.0827   -1.8405   -1.2866 C.2       1 <0>         0.4935
      9 O1         -0.8312   -3.0244   -1.3898 O.co2     1 <0>        -0.6222
     10 O2         -2.3146   -1.3850   -1.5856 O.co2     1 <0>        -0.7623
     11 C9          3.4728   -0.9910    0.5217 C.2       1 <0>         0.0864
     12 C10         4.7105   -0.5476    0.1015 C.2       1 <0>        -0.2238
     13 C11         5.6661   -1.2810    0.8003 C.2       1 <0>        -0.1648
     14 C12         4.9734   -2.1544    1.6302 C.2       1 <0>        -0.0096
     15 O3          3.6510   -1.9522    1.4432 O.3       1 <0>        -0.0928
     16 C13         5.5473   -3.0804    2.5116 C.2       1 <0>         0.0510
     17 C14         4.9251   -3.3650    3.7244 C.2       1 <0>        -0.2613
     18 C15         3.8065   -2.5483    4.2243 C.2       1 <0>         0.5246
     19 O4          3.3937   -1.5973    3.5870 O.3       1 <0>        -0.5310
     20 N1          3.2474   -2.8862    5.4045 N.2       1 <0>        -0.7069
     21 C16         3.6960   -3.9276    6.1194 C.2       1 <0>         0.6627
     22 O5          3.1530   -4.1761    7.1780 O.2       1 <0>        -0.6017
     23 N2          4.7125   -4.7090    5.7282 N.am      1 <0>        -0.7036
     24 C17         5.3613   -4.4922    4.5656 C.2       1 <0>         0.5696
     25 O6          6.2827   -5.2087    4.2213 O.2       1 <0>        -0.5516
     26 H1          2.4685   -3.0511    0.0282 H         1 <0>         0.0451
     27 H2          1.3681   -3.2733   -1.3741 H         1 <0>         0.0799
     28 H3          0.7195   -3.3588    0.2988 H         1 <0>         0.0779
     29 H4          2.6760    1.5809    0.3438 H         1 <0>         0.1196
     30 H5          0.5091    2.4206   -0.4533 H         1 <0>         0.1194
     31 H6         -1.2249    0.8532   -1.2095 H         1 <0>         0.1301
     32 H7          4.9018    0.2224   -0.6312 H         1 <0>         0.1463
     33 H8          6.7386   -1.1886    0.7142 H         1 <0>         0.1483
     34 H9          6.4892   -3.5824    2.2455 H         1 <0>         0.1575
     35 H10         5.0349   -5.5495    6.3603 H         1 <0>         0.4129
@<TRIPOS>BOND
     1    1    2 1
     2    1   26 1
     3    1   27 1
     4    1   28 1
     5    2    7 ar
     6    2    3 ar
     7    3    4 ar
     8    3   11 1
     9    4    5 ar
    10    4   29 1
    11    5    6 ar
    12    5   30 1
    13    6    7 ar
    14    6   31 1
    15    7    8 1
    16    8    9 2
    17    8   10 1
    18   11   15 1
    19   11   12 2
    20   12   13 1
    21   12   32 1
    22   13   14 2
    23   13   33 1
    24   14   15 1
    25   14   16 1
    26   16   17 2
    27   16   34 1
    28   17   24 1
    29   17   18 1
    30   18   19 1
    31   18   20 2
    32   20   21 1
    33   21   22 2
    34   21   23 am
    35   23   24 am
    36   23   35 1
    37   24   25 2
@<TRIPOS>MOLECULE
ZINC39100002
   23    23     0     0     0
SMALL
USER_CHARGES

@<TRIPOS>ATOM
      1 C1         -0.0187    1.5258    0.0104 C.3       1 <0>        -0.1429
      2 C2          0.0021   -0.0041    0.0020 C.3       1 <0>         0.0500
      3 O1          0.6709   -0.4649   -1.1737 O.3       1 <0>        -0.2708
      4 C3          0.7766   -1.8080   -1.3359 C.ar      1 <0>         0.1485
      5 C4          0.2437   -2.6647   -0.3883 C.ar      1 <0>        -0.2983
      6 C5          0.3510   -4.0381   -0.5529 C.ar      1 <0>         0.2172
      7 C6          0.9984   -4.5650   -1.6775 C.ar      1 <0>         0.0199
      8 C7          1.5326   -3.7201   -2.6273 C.ar      1 <0>        -0.0305
      9 C8          1.4217   -2.3311   -2.4684 C.ar      1 <0>        -0.2128
     10 C9          1.9831   -1.4272   -3.4791 C.2       1 <0>         0.5317
     11 O2          2.5450   -1.8853   -4.4654 O.co2     1 <0>        -0.7119
     12 O3          1.8896   -0.2152   -3.3358 O.co2     1 <0>        -0.6933
     13 S1          1.1308   -6.3105   -1.8787 S.3       1 <0>        -1.0039
     14 N1         -0.1861   -4.8950    0.4030 N.pl3     1 <0>        -0.8716
     15 H1          1.0039    1.9031    0.0027 H         1 <0>         0.0621
     16 H2         -0.5459    1.8868   -0.8726 H         1 <0>         0.0621
     17 H3         -0.5289    1.8773    0.9072 H         1 <0>         0.0591
     18 H4          0.5293   -0.3651    0.8851 H         1 <0>         0.0433
     19 H5         -1.0205   -0.3814    0.0098 H         1 <0>         0.0433
     20 H6         -0.2561   -2.2633    0.4808 H         1 <0>         0.1018
     21 H7          2.0320   -4.1273   -3.4940 H         1 <0>         0.1218
     22 H8         -0.6346   -4.5319    1.1827 H         1 <0>         0.3702
     23 H9         -0.1121   -5.8555    0.2897 H         1 <0>         0.4050
@<TRIPOS>BOND
     1    1    2 1
     2    1   15 1
     3    1   16 1
     4    1   17 1
     5    2    3 1
     6    2   18 1
     7    2   19 1
     8    3    4 1
     9    4    9 ar
    10    4    5 ar
    11    5    6 ar
    12    5   20 1
    13    6    7 ar
    14    6   14 1
    15    7    8 ar
    16    7   13 1
    17    8    9 ar
    18    8   21 1
    19    9   10 1
    20   10   11 2
    21   10   12 1
    22   14   22 1
    23   14   23 1
@<TRIPOS>MOLECULE
ZINC44935570
   32    32     0     0     0
SMALL
USER_CHARGES

@<TRIPOS>ATOM
      1 C1         -0.0187    1.5258    0.0104 C.3       1 <0>        -0.1489
      2 C2          0.0021   -0.0041    0.0020 C.3       1 <0>         0.2751
      3 H1         -1.0205   -0.3814    0.0098 H         1 <0>         0.0910
      4 C3          0.7309   -0.5033    1.2229 C.2       1 <0>         0.0513
      5 N1          0.1851   -1.0396    2.3047 N.2       1 <0>        -0.3796
      6 N2          1.1411   -1.3355    3.1177 N.2       1 <0>        -0.2001
      7 N3          2.2643   -1.0033    2.5830 N.2       1 <0>        -0.1997
      8 N4          2.0414   -0.4957    1.4189 N.2       1 <0>        -0.3813
      9 N5          0.6878   -0.4765   -1.2033 N.am      1 <0>        -0.7308
     10 C4          0.0062   -0.6081   -2.3585 C.2       1 <0>         0.7057
     11 O1         -1.1778   -0.3348   -2.4004 O.2       1 <0>        -0.5937
     12 N6          0.6370   -1.0428   -3.4674 N.am      1 <0>        -0.6337
     13 C5          2.0636   -1.3722   -3.4170 C.3       1 <0>         0.0822
     14 C6         -0.1039   -1.1859   -4.7231 C.3       1 <0>         0.1329
     15 C7         -0.0352    0.1256   -5.5081 C.3       1 <0>        -0.1058
     16 C8         -0.8089   -0.0238   -6.8195 C.3       1 <0>        -0.1790
     17 C9         -0.7413    1.2680   -7.5927 C.2       1 <0>         0.4903
     18 O2         -0.1308    2.2199   -7.1370 O.co2     1 <0>        -0.6973
     19 O3         -1.2971    1.3612   -8.6738 O.co2     1 <0>        -0.7146
     20 H2          1.0039    1.9031    0.0027 H         1 <0>         0.0555
     21 H3         -0.5459    1.8868   -0.8726 H         1 <0>         0.0611
     22 H4         -0.5289    1.8773    0.9072 H         1 <0>         0.0582
     23 H5          1.6324   -0.6946   -1.1699 H         1 <0>         0.3993
     24 H6          2.1848   -2.4237   -3.1567 H         1 <0>         0.0485
     25 H7          2.5144   -1.1848   -4.3916 H         1 <0>         0.0716
     26 H8          2.5531   -0.7531   -2.6652 H         1 <0>         0.0662
     27 H9          0.3369   -1.9875   -5.3158 H         1 <0>         0.0656
     28 H10        -1.1448   -1.4250   -4.5056 H         1 <0>         0.0778
     29 H11        -0.4760    0.9273   -4.9155 H         1 <0>         0.0649
     30 H12         1.0058    0.3648   -5.7256 H         1 <0>         0.0561
     31 H13        -0.3681   -0.8254   -7.4121 H         1 <0>         0.0536
     32 H14        -1.8499   -0.2629   -6.6020 H         1 <0>         0.0575
@<TRIPOS>BOND
     1    1    2 1
     2    1   20 1
     3    1   21 1
     4    1   22 1
     5    2    3 1
     6    2    4 1
     7    2    9 1
     8    4    5 1
     9    4    8 2
    10    5    6 1
    11    6    7 2
    12    7    8 1
    13    9   10 am
    14    9   23 1
    15   10   11 2
    16   10   12 am
    17   12   13 1
    18   12   14 1
    19   13   24 1
    20   13   25 1
    21   13   26 1
    22   14   15 1
    23   14   27 1
    24   14   28 1
    25   15   16 1
    26   15   29 1
    27   15   30 1
    28   16   17 1
    29   16   31 1
    30   16   32 1
    31   17   18 2
    32   17   19 1
@<TRIPOS>MOLECULE
ZINC59502819
   34    35     0     0     0
SMALL
USER_CHARGES

@<TRIPOS>ATOM
      1 C1         -0.0517    1.3851    0.0308 C.3       1 <0>         0.0257
      2 O1         -0.0189   -0.0434    0.0216 O.3       1 <0>        -0.3171
      3 C2          0.5827   -0.6391   -1.0390 C.ar      1 <0>         0.1412
      4 C3          1.1360    0.1392   -2.0491 C.ar      1 <0>        -0.2162
      5 C4          1.7472   -0.4613   -3.1270 C.ar      1 <0>        -0.0190
      6 C5          1.8108   -1.8553   -3.2045 C.ar      1 <0>        -0.1555
      7 C6          1.2533   -2.6341   -2.1869 C.ar      1 <0>        -0.0483
      8 C7          0.6488   -2.0258   -1.1096 C.ar      1 <0>        -0.1591
      9 C8          2.4645   -2.5030   -4.3580 C.2       1 <0>         0.5430
     10 O2          2.9487   -1.8238   -5.2427 O.2       1 <0>        -0.5074
     11 N1          2.5248   -3.8474   -4.4310 N.am      1 <0>        -0.6560
     12 C9          3.0565   -4.4602   -5.5631 C.ar      1 <0>         0.1060
     13 C10         2.5192   -5.6598   -6.0184 C.ar      1 <0>        -0.1792
     14 C11         3.0379   -6.2752   -7.1389 C.ar      1 <0>        -0.0817
     15 C12         4.1063   -5.6963   -7.8228 C.ar      1 <0>        -0.1297
     16 C13         4.6539   -4.4799   -7.3643 C.ar      1 <0>        -0.0615
     17 C14         4.1197   -3.8669   -6.2377 C.ar      1 <0>        -0.1177
     18 C15         5.7867   -3.8582   -8.0815 C.2       1 <0>         0.5630
     19 O3          6.9328   -4.0629   -7.7083 O.co2     1 <0>        -0.7012
     20 O4          5.5777   -3.1392   -9.0480 O.co2     1 <0>        -0.6917
     21 C16         4.6617   -6.3532   -9.0202 C.2       1 <0>         0.5154
     22 O5          4.1271   -7.3569   -9.4705 O.co2     1 <0>        -0.7202
     23 O6          5.6571   -5.8945   -9.5631 O.co2     1 <0>        -0.6410
     24 H1          0.9672    1.7721    0.0166 H         1 <0>         0.0573
     25 H2         -0.5881    1.7419   -0.8485 H         1 <0>         0.0570
     26 H3         -0.5593    1.7312    0.9312 H         1 <0>         0.0983
     27 H4          1.0861    1.2163   -1.9886 H         1 <0>         0.1330
     28 H5          2.1766    0.1441   -3.9115 H         1 <0>         0.1425
     29 H6          1.3004   -3.7116   -2.2431 H         1 <0>         0.1352
     30 H7          0.2216   -2.6269   -0.3205 H         1 <0>         0.1351
     31 H8          2.1980   -4.3882   -3.6951 H         1 <0>         0.3978
     32 H9          1.6919   -6.1120   -5.4916 H         1 <0>         0.1056
     33 H10         2.6161   -7.2066   -7.4866 H         1 <0>         0.1221
     34 H11         4.5312   -2.9332   -5.8838 H         1 <0>         0.1244
@<TRIPOS>BOND
     1    1    2 1
     2    1   24 1
     3    1   25 1
     4    1   26 1
     5    2    3 1
     6    3    8 ar
     7    3    4 ar
     8    4    5 ar
     9    4   27 1
    10    5    6 ar
    11    5   28 1
    12    6    7 ar
    13    6    9 1
    14    7    8 ar
    15    7   29 1
    16    8   30 1
    17    9   10 2
    18    9   11 am
    19   11   12 1
    20   11   31 1
    21   12   17 ar
    22   12   13 ar
    23   13   14 ar
    24   13   32 1
    25   14   15 ar
    26   14   33 1
    27   15   16 ar
    28   15   21 1
    29   16   17 ar
    30   16   18 1
    31   17   34 1
    32   18   19 2
    33   18   20 1
    34   21   22 2
    35   21   23 1
@<TRIPOS>MOLECULE
ZINC15261179
   34    34     0     0     0
SMALL
USER_CHARGES
(2R)-2-[[(E)-3-(4-hydroxyphenyl)prop-2-enoyl]amino]pentanedioic acid
@<TRIPOS>ATOM
      1 C1          0.9886   -4.9711   -0.6748 C.ar      1 <0>        -0.0930
      2 C2          1.0080   -6.3475   -0.6908 C.ar      1 <0>        -0.1423
      3 C3          1.9980   -7.0230   -1.3952 C.ar      1 <0>         0.0953
      4 C4          2.9695   -6.3132   -2.0917 C.ar      1 <0>        -0.1462
      5 C5          2.9553   -4.9367   -2.0872 C.ar      1 <0>        -0.0890
      6 C6          1.9607   -4.2517   -1.3795 C.ar      1 <0>        -0.0562
      7 C7          1.9408   -2.7819   -1.3714 C.2       1 <0>        -0.0658
      8 C8          0.9806   -2.1237   -0.6882 C.2       1 <0>        -0.1618
      9 C9          0.9608   -0.6613   -0.6802 C.2       1 <0>         0.5385
     10 O1          1.8101   -0.0377   -1.2896 O.2       1 <0>        -0.5565
     11 N1          0.0021   -0.0041    0.0020 N.am      1 <0>        -0.6816
     12 C10        -0.0178    1.4608    0.0101 C.3       1 <0>         0.0990
     13 H1          1.0048    1.8381    0.0023 H         1 <0>         0.0861
     14 C11        -0.7339    1.9542    1.2689 C.3       1 <0>        -0.0864
     15 C12         0.0735    1.5535    2.5052 C.3       1 <0>        -0.1528
     16 C13        -0.6319    2.0395    3.7450 C.2       1 <0>         0.4611
     17 O2         -1.6735    2.6443    3.6497 O.co2     1 <0>        -0.6384
     18 C14        -0.7467    1.9600   -1.2108 C.2       1 <0>         0.4649
     19 O3         -1.2027    1.1729   -2.0061 O.co2     1 <0>        -0.6402
     20 O4          2.0164   -8.3802   -1.4027 O.3       1 <0>        -0.5013
     21 H2          0.2219   -4.4472   -0.1233 H         1 <0>         0.1354
     22 H3          0.2553   -6.9035   -0.1516 H         1 <0>         0.1291
     23 H4          3.7365   -6.8426   -2.6374 H         1 <0>         0.1272
     24 H5          3.7105   -4.3862   -2.6286 H         1 <0>         0.1319
     25 H6          2.6944   -2.2286   -1.9122 H         1 <0>         0.1366
     26 H7          0.2270   -2.6769   -0.1475 H         1 <0>         0.1253
     27 H8         -0.6748   -0.5010    0.4877 H         1 <0>         0.3934
     28 H9         -0.8273    3.0396    1.2319 H         1 <0>         0.0846
     29 H10        -1.7260    1.5058    1.3219 H         1 <0>         0.0576
     30 H11         0.1669    0.4682    2.5421 H         1 <0>         0.0578
     31 H12         1.0656    2.0020    2.4522 H         1 <0>         0.0605
     32 H13         2.5349   -8.7705   -0.6859 H         1 <0>         0.3866
     33 O5         -0.1029    1.8006    4.9554 O.co2     1 <0>        -0.7910
     34 O6         -0.8892    3.2790   -1.4148 O.co2     1 <0>        -0.7686
@<TRIPOS>BOND
     1    1    6 ar
     2    1    2 ar
     3    1   21 1
     4    2    3 ar
     5    2   22 1
     6    3    4 ar
     7    3   20 1
     8    4    5 ar
     9    4   23 1
    10    5    6 ar
    11    5   24 1
    12    6    7 1
    13    7    8 2
    14    7   25 1
    15    8    9 1
    16    8   26 1
    17    9   10 2
    18    9   11 am
    19   11   12 1
    20   11   27 1
    21   12   13 1
    22   12   14 1
    23   12   18 1
    24   14   15 1
    25   14   28 1
    26   14   29 1
    27   15   16 1
    28   15   30 1
    29   15   31 1
    30   16   17 2
    31   16   33 1
    32   18   19 2
    33   18   34 1
    34   20   32 1
@<TRIPOS>MOLECULE
ZINC36978745
   38    38     0     0     0
SMALL
USER_CHARGES

@<TRIPOS>ATOM
      1 C1         -0.0170    1.4030    0.0098 C.2       1 <0>        -0.0857
      2 C2          1.1546    2.0937    0.0023 C.2       1 <0>        -0.2021
      3 C3          2.3730    1.3848   -0.0132 C.2       1 <0>         0.4910
      4 O1          3.4350    1.9872   -0.0197 O.2       1 <0>        -0.6022
      5 N1          2.3570    0.0367   -0.0202 N.am      1 <0>        -0.3842
      6 N2          1.1392   -0.6532   -0.0123 N.2       1 <0>        -0.3768
      7 C4          0.0021   -0.0041    0.0020 C.2       1 <0>         0.3576
      8 O2         -1.1678   -0.6940    0.0095 O.3       1 <0>        -0.7239
      9 C5          3.6182   -0.7085   -0.0368 C.3       1 <0>         0.1238
     10 C6          4.0648   -0.9716    1.3783 C.2       1 <0>         0.5008
     11 O3          3.3954   -0.5757    2.3089 O.2       1 <0>        -0.5215
     12 N3          5.2080   -1.6469    1.6096 N.am      1 <0>        -0.7358
     13 C7          5.6421   -1.9027    2.9852 C.3       1 <0>         0.1197
     14 C8          6.9593   -2.6809    2.9679 C.3       1 <0>        -0.1281
     15 C9          7.4127   -2.9480    4.4046 C.3       1 <0>        -0.1164
     16 C10         8.7299   -3.7262    4.3873 C.3       1 <0>        -0.1183
     17 C11         9.1833   -3.9934    5.8240 C.3       1 <0>        -0.0943
     18 C12        10.5005   -4.7716    5.8067 C.3       1 <0>        -0.1832
     19 C13        10.9471   -5.0347    7.2218 C.2       1 <0>         0.4877
     20 O4         10.2742   -4.6367    8.1573 O.co2     1 <0>        -0.6991
     21 O5         11.9813   -5.6456    7.4310 O.co2     1 <0>        -0.7132
     22 H1         -0.9583    1.9323    0.0261 H         1 <0>         0.1228
     23 H2          1.1516    3.1737    0.0078 H         1 <0>         0.1368
     24 H3          3.4732   -1.6568   -0.5543 H         1 <0>         0.1123
     25 H4          4.3786   -0.1243   -0.5551 H         1 <0>         0.1121
     26 H5          5.7433   -1.9635    0.8652 H         1 <0>         0.3975
     27 H6          5.7871   -0.9544    3.5027 H         1 <0>         0.0639
     28 H7          4.8817   -2.4869    3.5035 H         1 <0>         0.0651
     29 H8          6.8143   -3.6292    2.4504 H         1 <0>         0.0668
     30 H9          7.7197   -2.0967    2.4497 H         1 <0>         0.0662
     31 H10         7.5577   -1.9998    4.9221 H         1 <0>         0.0637
     32 H11         6.6523   -3.5323    4.9229 H         1 <0>         0.0642
     33 H12         8.5849   -4.6745    3.8698 H         1 <0>         0.0548
     34 H13         9.4903   -3.1420    3.8690 H         1 <0>         0.0545
     35 H14         9.3283   -3.0451    6.3415 H         1 <0>         0.0577
     36 H15         8.4229   -4.5776    6.3422 H         1 <0>         0.0580
     37 H16        10.3555   -5.7199    5.2892 H         1 <0>         0.0540
     38 H17        11.2609   -4.1874    5.2884 H         1 <0>         0.0538
@<TRIPOS>BOND
     1    1    7 1
     2    1    2 2
     3    1   22 1
     4    2    3 1
     5    2   23 1
     6    3    4 2
     7    3    5 am
     8    5    6 1
     9    5    9 1
    10    6    7 2
    11    7    8 1
    12    9   10 1
    13    9   24 1
    14    9   25 1
    15   10   11 2
    16   10   12 am
    17   12   13 1
    18   12   26 1
    19   13   14 1
    20   13   27 1
    21   13   28 1
    22   14   15 1
    23   14   29 1
    24   14   30 1
    25   15   16 1
    26   15   31 1
    27   15   32 1
    28   16   17 1
    29   16   33 1
    30   16   34 1
    31   17   18 1
    32   17   35 1
    33   17   36 1
    34   18   19 1
    35   18   37 1
    36   18   38 1
    37   19   20 2
    38   19   21 1
@<TRIPOS>MOLECULE
ZINC37792766
   30    30     0     0     0
SMALL
USER_CHARGES

@<TRIPOS>ATOM
      1 C1          0.2316    1.5060   -0.0913 C.3       1 <0>        -0.0637
      2 C2          1.6978    1.7991   -0.2188 C.2       1 <0>        -0.1522
      3 C3          2.5858    0.9214   -0.5603 C.2       1 <0>        -0.1378
      4 C4          2.2746   -0.5145   -0.8663 C.3       1 <0>        -0.0693
      5 C5          0.7775   -0.6839   -1.1334 C.3       1 <0>        -0.1420
      6 H1          0.5197   -0.2170   -2.0840 H         1 <0>         0.0686
      7 C6          0.0021   -0.0041    0.0020 C.3       1 <0>        -0.0915
      8 H2         -1.0614   -0.2200   -0.0999 H         1 <0>         0.0891
      9 C7          0.5013   -0.5112    1.3304 C.2       1 <0>         0.5235
     10 O1          1.3565    0.1036    1.9317 O.2       1 <0>        -0.5560
     11 N1         -0.0026   -1.6480    1.8502 N.am      1 <0>        -0.7206
     12 C8          0.4827   -2.1411    3.1416 C.3       1 <0>         0.1479
     13 C9         -0.2470   -3.4374    3.4995 C.3       1 <0>        -0.1949
     14 C10         0.2522   -3.9445    4.8279 C.2       1 <0>         0.4996
     15 O2          1.1119   -3.3265    5.4323 O.co2     1 <0>        -0.6977
     16 O3         -0.2036   -4.9729    5.2981 O.co2     1 <0>        -0.7102
     17 C11         0.4340   -2.1505   -1.1798 C.2       1 <0>         0.4962
     18 O4          1.3061   -2.9864   -1.0145 O.co2     1 <0>        -0.6845
     19 O5         -0.7159   -2.5012   -1.3827 O.co2     1 <0>        -0.7038
     20 H3         -0.1561    1.9865    0.8070 H         1 <0>         0.0650
     21 H4         -0.2924    1.8979   -0.9630 H         1 <0>         0.0678
     22 H5          2.0329    2.8049   -0.0131 H         1 <0>         0.0892
     23 H6          3.6147    1.2423   -0.6291 H         1 <0>         0.0884
     24 H7          2.8363   -0.8262   -1.7468 H         1 <0>         0.0597
     25 H8          2.5628   -1.1353   -0.0180 H         1 <0>         0.0797
     26 H9         -0.6866   -2.1398    1.3693 H         1 <0>         0.4014
     27 H10         1.5538   -2.3327    3.0781 H         1 <0>         0.0614
     28 H11         0.2924   -1.3928    3.9110 H         1 <0>         0.0590
     29 H12        -1.3181   -3.2457    3.5630 H         1 <0>         0.0597
     30 H13        -0.0568   -4.1857    2.7301 H         1 <0>         0.0678
@<TRIPOS>BOND
     1    1    7 1
     2    1    2 1
     3    1   20 1
     4    1   21 1
     5    2    3 2
     6    2   22 1
     7    3    4 1
     8    3   23 1
     9    4    5 1
    10    4   24 1
    11    4   25 1
    12    5    6 1
    13    5    7 1
    14    5   17 1
    15    7    8 1
    16    7    9 1
    17    9   10 2
    18    9   11 am
    19   11   12 1
    20   11   26 1
    21   12   13 1
    22   12   27 1
    23   12   28 1
    24   13   14 1
    25   13   29 1
    26   13   30 1
    27   14   15 2
    28   14   16 1
    29   17   18 2
    30   17   19 1
@<TRIPOS>MOLECULE
ZINC44928470
   27    27     0     0     0
SMALL
USER_CHARGES

@<TRIPOS>ATOM
      1 C1         -0.0187    1.5258    0.0104 C.3       1 <0>        -0.1025
      2 C2          0.0021   -0.0041    0.0020 C.3       1 <0>        -0.0934
      3 C3         -1.4333   -0.5336    0.0129 C.3       1 <0>        -0.1824
      4 C4         -1.4129   -2.0405    0.0046 C.2       1 <0>         0.4889
      5 O1         -0.3489   -2.6357   -0.0088 O.co2     1 <0>        -0.7006
      6 O2         -2.4603   -2.6644    0.0112 O.co2     1 <0>        -0.7139
      7 C5          1.4167    2.0553   -0.0004 C.3       1 <0>        -0.1387
      8 C6          1.3963    3.5622    0.0079 C.2       1 <0>         0.5115
      9 O3          0.3379    4.1542    0.0211 O.2       1 <0>        -0.5532
     10 N1          2.5542    4.2519    0.0005 N.am      1 <0>        -0.7197
     11 C7          2.5343    5.7167    0.0086 C.3       1 <0>         0.2385
     12 C8          3.9481    6.2383   -0.0021 C.2       1 <0>         0.0342
     13 N2          4.7015    6.5007    1.0559 N.2       1 <0>        -0.3738
     14 N3          5.8405    6.9266    0.6273 N.2       1 <0>        -0.1975
     15 N4          5.8259    6.9398   -0.6601 N.2       1 <0>        -0.1975
     16 N5          4.6792    6.5175   -1.0714 N.2       1 <0>        -0.3738
     17 H1         -0.5459    1.8868   -0.8726 H         1 <0>         0.0620
     18 H2         -0.5289    1.8773    0.9072 H         1 <0>         0.0620
     19 H3          0.5123   -0.3556   -0.8948 H         1 <0>         0.0578
     20 H4          0.5293   -0.3651    0.8851 H         1 <0>         0.0578
     21 H5         -1.9435   -0.1821    0.9097 H         1 <0>         0.0553
     22 H6         -1.9605   -0.1726   -0.8702 H         1 <0>         0.0553
     23 H7          1.9439    1.6943    0.8826 H         1 <0>         0.0903
     24 H8          1.9269    1.7038   -0.8972 H         1 <0>         0.0902
     25 H9          3.4007    3.7784   -0.0101 H         1 <0>         0.4002
     26 H10         2.0071    6.0778   -0.8745 H         1 <0>         0.0716
     27 H11         2.0241    6.0683    0.9054 H         1 <0>         0.0716
@<TRIPOS>BOND
     1    1    2 1
     2    1    7 1
     3    1   17 1
     4    1   18 1
     5    2    3 1
     6    2   19 1
     7    2   20 1
     8    3    4 1
     9    3   21 1
    10    3   22 1
    11    4    5 2
    12    4    6 1
    13    7    8 1
    14    7   23 1
    15    7   24 1
    16    8    9 2
    17    8   10 am
    18   10   11 1
    19   10   25 1
    20   11   12 1
    21   11   26 1
    22   11   27 1
    23   12   16 2
    24   12   13 1
    25   13   14 1
    26   14   15 2
    27   15   16 1
@<TRIPOS>MOLECULE
ZINC42524178
   26    26     0     0     0
SMALL
USER_CHARGES

@<TRIPOS>ATOM
      1 C1         -0.0187    1.5258    0.0104 C.3       1 <0>        -0.0989
      2 C2          0.0021   -0.0041    0.0020 C.3       1 <0>        -0.6278
      3 H1          0.5123   -0.3556   -0.8948 H         1 <0>         0.1103
      4 C3         -1.4117   -0.5257    0.0127 C.2       1 <0>         0.5194
      5 O1         -2.0255   -0.6447   -1.0340 O.co2     1 <0>        -0.6939
      6 O2         -1.9418   -0.8287    1.0681 O.co2     1 <0>        -0.6824
      7 S1          0.8794   -0.6050    1.4716 S.o2      1 <0>         2.5732
      8 O3          0.2629   -0.1027    2.6492 O.2       1 <0>        -1.0209
      9 O4          1.1657   -1.9905    1.3383 O.2       1 <0>        -1.0473
     10 N1          2.3579    0.1390    1.4185 N.2       1 <0>        -1.1145
     11 C4          3.3018   -0.1069    2.4227 C.ar      1 <0>         0.2646
     12 C5          3.0003   -0.9792    3.4603 C.ar      1 <0>        -0.2136
     13 C6          3.9312   -1.2226    4.4510 C.ar      1 <0>        -0.1227
     14 C7          5.1688   -0.5948    4.4103 C.ar      1 <0>         0.0983
     15 C8          5.4710    0.2781    3.3724 C.ar      1 <0>        -0.0493
     16 C9          4.5414    0.5169    2.3781 C.ar      1 <0>        -0.1540
     17 Cl1         7.0184    1.0633    3.3210 Cl        1 <0>        -0.1204
     18 N2          6.1126   -0.8410    5.4157 N.pl3     1 <0>        -0.8960
     19 H2          1.0039    1.9031    0.0027 H         1 <0>         0.0686
     20 H3         -0.5459    1.8868   -0.8726 H         1 <0>         0.0499
     21 H4         -0.5289    1.8773    0.9072 H         1 <0>         0.0552
     22 H5          2.0374   -1.4672    3.4928 H         1 <0>         0.1087
     23 H6          3.6963   -1.9010    5.2578 H         1 <0>         0.1061
     24 H7          4.7775    1.1919    1.5688 H         1 <0>         0.1186
     25 H8          5.9014   -1.4502    6.1404 H         1 <0>         0.3841
     26 H9          6.9772   -0.4024    5.3872 H         1 <0>         0.3847
@<TRIPOS>BOND
     1    1    2 1
     2    1   19 1
     3    1   20 1
     4    1   21 1
     5    2    3 1
     6    2    4 1
     7    2    7 1
     8    4    5 2
     9    4    6 1
    10    7    8 2
    11    7    9 2
    12    7   10 1
    13   10   11 1
    14   11   16 ar
    15   11   12 ar
    16   12   13 ar
    17   12   22 1
    18   13   14 ar
    19   13   23 1
    20   14   15 ar
    21   14   18 1
    22   15   16 ar
    23   15   17 1
    24   16   24 1
    25   18   25 1
    26   18   26 1
@<TRIPOS>MOLECULE
ZINC33509694
   46    46     0     0     0
SMALL
USER_CHARGES
(2S)-5-amino-2-[[(2R)-2-(5-methyl-2-oxo-1-pyridyl)pentanoyl]amino]-5-oxo-pentanoic acid
@<TRIPOS>ATOM
      1 C1          4.5186   -0.4854    3.7017 C.3       1 <0>        -0.1503
      2 C2          3.7030   -0.8453    2.4582 C.3       1 <0>        -0.1230
      3 C3          4.4390   -0.3603    1.2076 C.3       1 <0>        -0.1326
      4 C4          3.6235   -0.7202   -0.0359 C.3       1 <0>         0.1108
      5 H1          3.3815   -1.7931   -0.0527 H         1 <0>         0.1191
      6 C5          4.4038   -0.3533   -1.2719 C.2       1 <0>         0.5171
      7 O1          3.9477    0.4458   -2.0620 O.2       1 <0>        -0.5230
      8 N1          5.6084   -0.9133   -1.4993 N.am      1 <0>        -0.7061
      9 C6          6.3669   -0.5567   -2.7008 C.3       1 <0>         0.1081
     10 H2          6.1632    0.5019   -2.9195 H         1 <0>         0.0885
     11 C7          7.8583   -0.7890   -2.4501 C.3       1 <0>        -0.0896
     12 C8          8.3480    0.1696   -1.3629 C.3       1 <0>        -0.1396
     13 C9          9.8170   -0.0592   -1.1160 C.2       1 <0>         0.5162
     14 O2         10.4134   -0.9056   -1.7474 O.2       1 <0>        -0.5472
     15 N2         10.4679    0.6768   -0.1934 N.am      1 <0>        -0.8846
     16 C10         5.9121   -1.4129   -3.8545 C.2       1 <0>         0.4602
     17 O3          5.0435   -2.2366   -3.6900 O.co2     1 <0>        -0.6325
     18 O4          6.4720   -1.2606   -5.0649 O.co2     1 <0>        -0.7643
     19 N3          2.3580    0.0177   -0.0204 N.am      1 <0>        -0.4749
     20 C11         1.1838   -0.6637   -0.0128 C.2       1 <0>         0.1396
     21 C12         0.0021   -0.0041    0.0020 C.2       1 <0>        -0.2098
     22 C13        -0.0169    1.3977    0.0097 C.2       1 <0>        -0.0174
     23 C14         1.1638    2.0807    0.0021 C.2       1 <0>        -0.2385
     24 C15         2.3727    1.3642   -0.0133 C.2       1 <0>         0.5242
     25 O5          3.4365    1.9628   -0.0202 O.2       1 <0>        -0.5343
     26 C16        -1.2923   -0.7758    0.0107 C.3       1 <0>        -0.0929
     27 H3          3.9894   -0.8341    4.6008 H         1 <0>         0.0535
     28 H4          4.6478    0.6058    3.7523 H         1 <0>         0.0548
     29 H5          5.5049   -0.9692    3.6459 H         1 <0>         0.0561
     30 H6          3.5738   -1.9365    2.4076 H         1 <0>         0.0639
     31 H7          2.7167   -0.3615    2.5139 H         1 <0>         0.0596
     32 H8          4.5681    0.7309    1.2582 H         1 <0>         0.1003
     33 H9          5.4254   -0.8440    1.1519 H         1 <0>         0.0835
     34 H10         6.0220   -1.6381   -0.7827 H         1 <0>         0.4049
     35 H11         8.0177   -1.8270   -2.1227 H         1 <0>         0.0690
     36 H12         8.4189   -0.6073   -3.3789 H         1 <0>         0.0937
     37 H13         8.1885    1.2076   -1.6903 H         1 <0>         0.0922
     38 H14         7.7874   -0.0122   -0.4341 H         1 <0>         0.0890
     39 H15        11.5401    0.5098   -0.0132 H         1 <0>         0.4135
     40 H16         9.9269    1.4445    0.3793 H         1 <0>         0.4171
     41 H17         1.1928   -1.7437   -0.0191 H         1 <0>         0.1573
     42 H18        -0.9561    1.9310    0.0171 H         1 <0>         0.1297
     43 H19         1.1695    3.1606    0.0075 H         1 <0>         0.1442
     44 H20        -2.1382   -0.0728    0.0225 H         1 <0>         0.0654
     45 H21        -1.3330   -1.4135    0.9061 H         1 <0>         0.0634
     46 H22        -1.3504   -1.4044   -0.8901 H         1 <0>         0.0657
@<TRIPOS>BOND
     1    1    2 1
     2    1   27 1
     3    1   28 1
     4    1   29 1
     5    2    3 1
     6    2   30 1
     7    2   31 1
     8    3    4 1
     9    3   32 1
    10    3   33 1
    11    4    5 1
    12    4    6 1
    13    4   19 1
    14    6    7 2
    15    6    8 am
    16    8    9 1
    17    8   34 1
    18    9   10 1
    19    9   11 1
    20    9   16 1
    21   11   12 1
    22   11   35 1
    23   11   36 1
    24   12   13 1
    25   12   37 1
    26   12   38 1
    27   13   14 2
    28   13   15 am
    29   15   39 1
    30   15   40 1
    31   16   17 2
    32   16   18 1
    33   19   24 am
    34   19   20 1
    35   20   21 2
    36   20   41 1
    37   21   22 1
    38   21   26 1
    39   22   23 2
    40   22   42 1
    41   23   24 1
    42   23   43 1
    43   24   25 2
    44   26   44 1
    45   26   45 1
    46   26   46 1
@<TRIPOS>MOLECULE
ZINC37583029
   42    42     0     0     0
SMALL
USER_CHARGES

@<TRIPOS>ATOM
      1 C1          0.1291    1.2895    0.1573 C.3       1 <0>        -0.1442
      2 C2          0.0809   -0.2202   -0.0863 C.3       1 <0>        -0.0885
      3 C3          0.9316   -0.9341    0.9660 C.3       1 <0>        -0.1461
      4 C4         -1.3664   -0.7067    0.0121 C.3       1 <0>        -0.1297
      5 C5         -2.1838   -0.1113   -1.1360 C.3       1 <0>         0.1429
      6 H1         -2.0684    0.9726   -1.1403 H         1 <0>         0.1208
      7 C6         -3.6380   -0.4609   -0.9513 C.2       1 <0>         0.5157
      8 O1         -4.1886   -1.2006   -1.7390 O.2       1 <0>        -0.5472
      9 N1         -4.3267    0.0485    0.0892 N.am      1 <0>        -0.5724
     10 C7         -3.6917    1.0208    0.9823 C.3       1 <0>         0.1120
     11 C8         -4.0299    2.4383    0.5162 C.3       1 <0>        -0.1985
     12 C9         -3.3766    3.4385    1.4349 C.2       1 <0>         0.4965
     13 O2         -2.7030    3.0532    2.3753 O.co2     1 <0>        -0.6947
     14 O3         -3.5217    4.6329    1.2378 O.co2     1 <0>        -0.6995
     15 C10        -5.7103   -0.3700    0.3272 C.3       1 <0>         0.0730
     16 C11        -6.1959   -1.6382   -0.3777 C.3       1 <0>        -0.1938
     17 C12        -6.6906   -0.2673   -0.8430 C.3       1 <0>        -0.1865
     18 N2         -1.7080   -0.6581   -2.4091 N.am      1 <0>        -0.7256
     19 C13        -0.6573   -0.0918   -3.0350 C.2       1 <0>         0.7031
     20 O4         -0.1043    0.8728   -2.5431 O.2       1 <0>        -0.5747
     21 N3         -0.2195   -0.5949   -4.2063 N.am      1 <0>        -0.8694
     22 H2          1.1669    1.6227    0.1693 H         1 <0>         0.0446
     23 H3         -0.4083    1.8035   -0.6396 H         1 <0>         0.0699
     24 H4         -0.3368    1.5179    1.1159 H         1 <0>         0.0573
     25 H5          0.4714   -0.4405   -1.0798 H         1 <0>         0.0771
     26 H6          0.5410   -0.7137    1.9595 H         1 <0>         0.0551
     27 H7          0.8973   -2.0096    0.7924 H         1 <0>         0.0448
     28 H8          1.9627   -0.5875    0.8959 H         1 <0>         0.0516
     29 H9         -1.3891   -1.7946   -0.0516 H         1 <0>         0.0653
     30 H10        -1.7923   -0.3895    0.9640 H         1 <0>         0.0898
     31 H11        -4.0589    0.8751    1.9981 H         1 <0>         0.0833
     32 H12        -2.6109    0.8802    0.9630 H         1 <0>         0.1001
     33 H13        -3.6626    2.5841   -0.4997 H         1 <0>         0.0572
     34 H14        -5.1106    2.5790    0.5355 H         1 <0>         0.0618
     35 H15        -6.0968   -0.1699    1.3265 H         1 <0>         0.1293
     36 H16        -5.4859   -2.1612   -1.0184 H         1 <0>         0.1364
     37 H17        -6.9019   -2.2728    0.1581 H         1 <0>         0.0854
     38 H18        -7.7221    0.0001   -0.6135 H         1 <0>         0.0931
     39 H19        -6.3061    0.1118   -1.7899 H         1 <0>         0.0944
     40 H20        -2.1491   -1.4277   -2.8015 H         1 <0>         0.4024
     41 H21        -0.6606   -1.3645   -4.5987 H         1 <0>         0.3945
     42 H22         0.5367   -0.1874   -4.6568 H         1 <0>         0.4135
@<TRIPOS>BOND
     1    1    2 1
     2    1   22 1
     3    1   23 1
     4    1   24 1
     5    2    3 1
     6    2    4 1
     7    2   25 1
     8    3   26 1
     9    3   27 1
    10    3   28 1
    11    4    5 1
    12    4   29 1
    13    4   30 1
    14    5    6 1
    15    5    7 1
    16    5   18 1
    17    7    8 2
    18    7    9 am
    19    9   10 1
    20    9   15 1
    21   10   11 1
    22   10   31 1
    23   10   32 1
    24   11   12 1
    25   11   33 1
    26   11   34 1
    27   12   13 2
    28   12   14 1
    29   15   17 1
    30   15   16 1
    31   15   35 1
    32   16   17 1
    33   16   36 1
    34   16   37 1
    35   17   38 1
    36   17   39 1
    37   18   19 am
    38   18   40 1
    39   19   20 2
    40   19   21 am
    41   21   41 1
    42   21   42 1
@<TRIPOS>MOLECULE
ZINC42596731
   42    42     0     0     0
SMALL
USER_CHARGES

@<TRIPOS>ATOM
      1 C1          0.9714   -1.1955   -0.0148 C.3       1 <0>        -0.1651
      2 C2         -0.0041   -0.0170   -0.0006 C.3       1 <0>         0.1344
      3 C3          0.2919    0.9044   -1.1856 C.3       1 <0>        -0.1611
      4 N1         -1.3770   -0.5181   -0.1026 N.am      1 <0>        -0.6262
      5 C4         -1.7557   -1.3960   -1.2126 C.3       1 <0>         0.1677
      6 C5         -1.5253   -2.8543   -0.8109 C.3       1 <0>        -0.1595
      7 C6         -0.4822   -3.6481   -1.6000 C.3       1 <0>        -0.1822
      8 C7         -1.9719   -3.9371   -1.7952 C.3       1 <0>        -0.1775
      9 C8         -2.2916   -0.1714    0.8247 C.2       1 <0>         0.7079
     10 O1         -3.4521   -0.5080    0.6894 O.2       1 <0>        -0.5900
     11 N2         -1.9197    0.5482    1.9018 N.am      1 <0>        -0.7125
     12 C9         -2.8867    0.8255    2.9669 C.3       1 <0>         0.0922
     13 H1         -3.8768    0.9627    2.5321 H         1 <0>         0.0834
     14 C10        -2.4755    2.0978    3.7105 C.3       1 <0>        -0.0940
     15 C11        -2.5645    3.2946    2.7615 C.3       1 <0>        -0.1385
     16 C12        -2.1594    4.5477    3.4940 C.2       1 <0>         0.5148
     17 O2         -1.8318    4.4894    4.6603 O.2       1 <0>        -0.5391
     18 N3         -2.1612    5.7333    2.8530 N.am      1 <0>        -0.8628
     19 C13        -2.9176   -0.3322    3.9311 C.2       1 <0>         0.4918
     20 O3         -1.9160   -1.0043    4.1091 O.co2     1 <0>        -0.6905
     21 O4         -3.9442   -0.5968    4.5333 O.co2     1 <0>        -0.6953
     22 H2          1.9947   -0.8202   -0.0138 H         1 <0>         0.0595
     23 H3          0.8096   -1.8118    0.8697 H         1 <0>         0.0634
     24 H4          0.8048   -1.7943   -0.9102 H         1 <0>         0.0668
     25 H5          0.1114    0.5392    0.9298 H         1 <0>         0.0835
     26 H6          0.0933    0.3738   -2.1168 H         1 <0>         0.0580
     27 H7         -0.3449    1.7871   -1.1275 H         1 <0>         0.0563
     28 H8          1.3382    1.2086   -1.1568 H         1 <0>         0.0640
     29 H9         -2.8088   -1.2468   -1.4509 H         1 <0>         0.0860
     30 H10        -1.1484   -1.1596   -2.0863 H         1 <0>         0.0710
     31 H11        -1.6232   -3.0699    0.2531 H         1 <0>         0.1085
     32 H12         0.0399   -3.1314   -2.4053 H         1 <0>         0.0908
     33 H13         0.1065   -4.3861   -1.0552 H         1 <0>         0.0901
     34 H14        -2.3633   -4.8653   -1.3788 H         1 <0>         0.0919
     35 H15        -2.4299   -3.6107   -2.7289 H         1 <0>         0.0920
     36 H16        -1.0119    0.8827    1.9719 H         1 <0>         0.3857
     37 H17        -3.1431    2.2554    4.5576 H         1 <0>         0.0843
     38 H18        -1.4515    1.9940    4.0694 H         1 <0>         0.0713
     39 H19        -1.8968    3.1370    1.9144 H         1 <0>         0.0895
     40 H20        -3.5884    3.3984    2.4026 H         1 <0>         0.0939
     41 H21        -2.4232    5.7800    1.9202 H         1 <0>         0.3994
     42 H22        -1.9005    6.5400    3.3245 H         1 <0>         0.3962
@<TRIPOS>BOND
     1    1    2 1
     2    1   22 1
     3    1   23 1
     4    1   24 1
     5    2    3 1
     6    2    4 1
     7    2   25 1
     8    3   26 1
     9    3   27 1
    10    3   28 1
    11    4    5 1
    12    4    9 am
    13    5    6 1
    14    5   29 1
    15    5   30 1
    16    6    8 1
    17    6    7 1
    18    6   31 1
    19    7    8 1
    20    7   32 1
    21    7   33 1
    22    8   34 1
    23    8   35 1
    24    9   10 2
    25    9   11 am
    26   11   12 1
    27   11   36 1
    28   12   13 1
    29   12   14 1
    30   12   19 1
    31   14   15 1
    32   14   37 1
    33   14   38 1
    34   15   16 1
    35   15   39 1
    36   15   40 1
    37   16   17 2
    38   16   18 am
    39   18   41 1
    40   18   42 1
    41   19   20 2
    42   19   21 1
@<TRIPOS>MOLECULE
ZINC48843400
   44    44     0     0     0
SMALL
USER_CHARGES

@<TRIPOS>ATOM
      1 C1         -0.0178    1.4648    0.0101 C.3       1 <0>         0.0434
      2 C2          1.4210    1.9919   -0.0008 C.3       1 <0>         0.0720
      3 N1          2.1320    1.3858   -1.1368 N.am      1 <0>        -0.6120
      4 C3          2.0817   -0.0762   -1.2892 C.3       1 <0>         0.0622
      5 C4          0.6168   -0.5219   -1.2276 C.3       1 <0>         0.0420
      6 N2          0.0021   -0.0041    0.0020 N.3       1 <0>        -0.6847
      7 C5          2.8120    2.1498   -2.0144 C.2       1 <0>         0.5139
      8 O1          2.8433    3.3540   -1.8732 O.2       1 <0>        -0.5333
      9 C6          3.5335    1.5079   -3.1713 C.3       1 <0>         0.1241
     10 N3          4.1902    2.5437   -3.9727 N.am      1 <0>        -0.7399
     11 C7          4.9000    2.2010   -5.0659 C.2       1 <0>         0.7071
     12 O2          4.9953    1.0322   -5.3871 O.2       1 <0>        -0.5935
     13 N4          5.5041    3.1539   -5.8031 N.am      1 <0>        -0.7411
     14 C8          6.2757    2.7814   -6.9915 C.3       1 <0>         0.1371
     15 C9          6.8523    4.0411   -7.6407 C.3       1 <0>        -0.1307
     16 C10         7.6581    3.6521   -8.8818 C.3       1 <0>        -0.1168
     17 C11         8.2347    4.9118   -9.5310 C.3       1 <0>        -0.0923
     18 C12         9.0405    4.5228  -10.7721 C.3       1 <0>        -0.1842
     19 C13         9.6084    5.7636  -11.4115 C.2       1 <0>         0.4872
     20 O3          9.3891    6.8577  -10.9201 O.co2     1 <0>        -0.7003
     21 O4         10.2873    5.6734  -12.4202 O.co2     1 <0>        -0.7092
     22 H1         -0.5273    1.8167    0.9071 H         1 <0>         0.0912
     23 H2         -0.5443    1.8262   -0.8732 H         1 <0>         0.0798
     24 H3          1.4128    3.0763   -0.1104 H         1 <0>         0.0997
     25 H4          1.9180    1.7189    0.9301 H         1 <0>         0.0699
     26 H5          2.5103   -0.3591   -2.2506 H         1 <0>         0.0963
     27 H6          2.6422   -0.5480   -0.4822 H         1 <0>         0.0756
     28 H7          0.0815   -0.1328   -2.0936 H         1 <0>         0.0812
     29 H8          0.5676   -1.6108   -1.2281 H         1 <0>         0.0935
     30 H9          0.4708   -0.3638    0.8199 H         1 <0>         0.3439
     31 H10         4.2824    0.8127   -2.7918 H         1 <0>         0.0972
     32 H11         2.8178    0.9680   -3.7914 H         1 <0>         0.0976
     33 H12         4.1142    3.4761   -3.7164 H         1 <0>         0.4076
     34 H13         5.4281    4.0863   -5.5469 H         1 <0>         0.3986
     35 H14         7.0896    2.1165   -6.7025 H         1 <0>         0.0665
     36 H15         5.6250    2.2717   -7.7021 H         1 <0>         0.0666
     37 H16         6.0384    4.7060   -7.9296 H         1 <0>         0.0687
     38 H17         7.5030    4.5508   -6.9301 H         1 <0>         0.0686
     39 H18         8.4720    2.9872   -8.5928 H         1 <0>         0.0595
     40 H19         7.0074    3.1424   -9.5924 H         1 <0>         0.0595
     41 H20         7.4208    5.5768   -9.8199 H         1 <0>         0.0586
     42 H21         8.8854    5.4215   -8.8204 H         1 <0>         0.0585
     43 H22         9.8544    3.8579  -10.4831 H         1 <0>         0.0552
     44 H23         8.3898    4.0132  -11.4827 H         1 <0>         0.0552
@<TRIPOS>BOND
     1    1    6 1
     2    1    2 1
     3    1   22 1
     4    1   23 1
     5    2    3 1
     6    2   24 1
     7    2   25 1
     8    3    4 1
     9    3    7 am
    10    4    5 1
    11    4   26 1
    12    4   27 1
    13    5    6 1
    14    5   28 1
    15    5   29 1
    16    6   30 1
    17    7    8 2
    18    7    9 1
    19    9   10 1
    20    9   31 1
    21    9   32 1
    22   10   11 am
    23   10   33 1
    24   11   12 2
    25   11   13 am
    26   13   14 1
    27   13   34 1
    28   14   15 1
    29   14   35 1
    30   14   36 1
    31   15   16 1
    32   15   37 1
    33   15   38 1
    34   16   17 1
    35   16   39 1
    36   16   40 1
    37   17   18 1
    38   17   41 1
    39   17   42 1
    40   18   19 1
    41   18   43 1
    42   18   44 1
    43   19   20 2
    44   19   21 1
@<TRIPOS>MOLECULE
ZINC45074363
   33    33     0     0     0
SMALL
USER_CHARGES

@<TRIPOS>ATOM
      1 C1         -0.0169    1.3932    0.0097 C.ar      1 <0>        -0.0221
      2 C2          1.1694    2.0957    0.0021 C.ar      1 <0>        -0.1395
      3 C3          2.3783    1.4194   -0.0135 C.ar      1 <0>         0.0356
      4 C4          2.4041    0.0340   -0.0212 C.ar      1 <0>        -0.6840
      5 C5          1.2254   -0.6803   -0.0138 C.ar      1 <0>         0.0246
      6 C6          0.0021   -0.0041    0.0020 C.ar      1 <0>        -0.1419
      7 C7         -1.2629   -0.7619    0.0105 C.2       1 <0>         0.5204
      8 O1         -2.3317   -0.1675    0.0243 O.co2     1 <0>        -0.6788
      9 O2         -1.2433   -1.9847    0.0038 O.co2     1 <0>        -0.6738
     10 S1          3.9471   -0.8164   -0.0411 S.o2      1 <0>         2.6965
     11 O3          4.7454   -0.2332    0.9797 O.2       1 <0>        -0.9473
     12 O4          3.6454   -2.2046   -0.0726 O.2       1 <0>        -0.9508
     13 N1          4.6844   -0.4594   -1.4803 N.pl3     1 <0>        -1.1159
     14 C8          5.1006    0.9152   -1.7690 C.3       1 <0>         0.1149
     15 C9          6.0665    0.9171   -2.9556 C.3       1 <0>        -0.1233
     16 C10         6.5012    2.3527   -3.2571 C.3       1 <0>        -0.6233
     17 S2          7.6463    2.3549   -4.6640 S.o2      1 <0>         2.6159
     18 O5          8.8685    1.7271   -4.3012 O.2       1 <0>        -0.9618
     19 O6          6.9632    1.9784   -5.8517 O.2       1 <0>        -0.9607
     20 N2          8.0401    3.9475   -4.8897 N.pl3     1 <0>        -1.2519
     21 Cl1         3.8674    2.3115   -0.0241 Cl        1 <0>        -0.0651
     22 H1         -0.9586    1.9216    0.0260 H         1 <0>         0.1468
     23 H2          1.1562    3.1756    0.0081 H         1 <0>         0.1375
     24 H3          1.2468   -1.7601   -0.0205 H         1 <0>         0.1587
     25 H4          4.8406   -1.1605   -2.1322 H         1 <0>         0.4208
     26 H5          4.2247    1.5165   -2.0125 H         1 <0>         0.0804
     27 H6          5.5981    1.3354   -0.8949 H         1 <0>         0.0893
     28 H7          6.9424    0.3158   -2.7120 H         1 <0>         0.0918
     29 H8          5.5690    0.4969   -3.8297 H         1 <0>         0.0918
     30 H9          5.6253    2.9540   -3.5006 H         1 <0>         0.1415
     31 H10         6.9987    2.7728   -2.3830 H         1 <0>         0.1399
     32 H11         7.6598    4.6277   -4.3121 H         1 <0>         0.4134
     33 H12         8.6510    4.2001   -5.5995 H         1 <0>         0.4203
@<TRIPOS>BOND
     1    1    6 ar
     2    1    2 ar
     3    1   22 1
     4    2    3 ar
     5    2   23 1
     6    3    4 ar
     7    3   21 1
     8    4    5 ar
     9    4   10 1
    10    5    6 ar
    11    5   24 1
    12    6    7 1
    13    7    8 2
    14    7    9 1
    15   10   11 2
    16   10   12 2
    17   10   13 1
    18   13   14 1
    19   13   25 1
    20   14   15 1
    21   14   26 1
    22   14   27 1
    23   15   16 1
    24   15   28 1
    25   15   29 1
    26   16   17 1
    27   16   30 1
    28   16   31 1
    29   17   18 2
    30   17   19 2
    31   17   20 1
    32   20   32 1
    33   20   33 1
@<TRIPOS>MOLECULE
ZINC03107243
   38    38     0     0     0
SMALL
USER_CHARGES
3,5-bis(3-carboxypropanoylamino)benzoic acid
@<TRIPOS>ATOM
      1 C1         -1.3228    3.0867   -0.0552 C.ar      1 <0>        -0.0890
      2 C2         -0.1406    3.8040   -0.2429 C.ar      1 <0>        -0.0858
      3 C3          1.0843    3.1355   -0.2444 C.ar      1 <0>        -0.0976
      4 C4          1.1226    1.7619   -0.0595 C.ar      1 <0>         0.1403
      5 C5         -0.0557    1.0516    0.1269 C.ar      1 <0>        -0.1771
      6 C6         -1.2768    1.7125    0.1238 C.ar      1 <0>         0.1374
      7 N1         -2.4623    0.9915    0.3068 N.am      1 <0>        -0.6769
      8 C7         -3.5819    1.3581   -0.3478 C.2       1 <0>         0.5004
      9 O1         -3.5847    2.3610   -1.0299 O.2       1 <0>        -0.5080
     10 C8         -4.8303    0.5219   -0.2323 C.3       1 <0>        -0.1119
     11 C9         -5.9466    1.1541   -1.0661 C.3       1 <0>        -0.1432
     12 C10        -7.1950    0.3179   -0.9505 C.2       1 <0>         0.4645
     13 O2         -7.1922   -0.6812   -0.2710 O.co2     1 <0>        -0.6484
     14 N2          2.3506    1.0905   -0.0613 N.am      1 <0>        -0.6766
     15 C11         3.4514    1.6978    0.4243 C.2       1 <0>         0.5020
     16 O3          3.3616    2.7887    0.9467 O.2       1 <0>        -0.5116
     17 C12         4.7940    1.0214    0.3181 C.3       1 <0>        -0.1126
     18 C13         5.8668    1.9169    0.9410 C.3       1 <0>        -0.1430
     19 C14         7.2093    1.2406    0.8348 C.2       1 <0>         0.4643
     20 O4          7.2988    0.1538    0.3144 O.co2     1 <0>        -0.6480
     21 C15        -0.1858    5.2677   -0.4400 C.2       1 <0>         0.4937
     22 O5          0.8441    5.8905   -0.6037 O.co2     1 <0>        -0.6311
     23 H1         -2.2727    3.6007   -0.0535 H         1 <0>         0.1480
     24 H2          2.0013    3.6873   -0.3897 H         1 <0>         0.1396
     25 H3         -0.0228   -0.0183    0.2704 H         1 <0>         0.1185
     26 H4         -2.4781    0.2279    0.9048 H         1 <0>         0.4036
     27 H5         -4.6286   -0.4847   -0.5987 H         1 <0>         0.0907
     28 H6         -5.1397    0.4732    0.8117 H         1 <0>         0.0910
     29 H7         -6.1482    2.1606   -0.6996 H         1 <0>         0.0740
     30 H8         -5.6372    1.2027   -2.1101 H         1 <0>         0.0720
     31 H9          2.4094    0.1880   -0.4120 H         1 <0>         0.4040
     32 H10         4.7637    0.0689    0.8471 H         1 <0>         0.0901
     33 H11         5.0308    0.8468   -0.7314 H         1 <0>         0.0925
     34 H12         5.8971    2.8695    0.4120 H         1 <0>         0.0740
     35 H13         5.6300    2.0915    1.9905 H         1 <0>         0.0715
     36 O6         -8.3100    0.6830   -1.6025 O.co2     1 <0>        -0.7789
     37 O7          8.3057    1.8454    1.3184 O.co2     1 <0>        -0.7788
     38 O8         -1.3692    5.9113   -0.4383 O.co2     1 <0>        -0.7535
@<TRIPOS>BOND
     1    1    6 ar
     2    1    2 ar
     3    1   23 1
     4    2    3 ar
     5    2   21 1
     6    3    4 ar
     7    3   24 1
     8    4    5 ar
     9    4   14 1
    10    5    6 ar
    11    5   25 1
    12    6    7 1
    13    7    8 am
    14    7   26 1
    15    8    9 2
    16    8   10 1
    17   10   11 1
    18   10   27 1
    19   10   28 1
    20   11   12 1
    21   11   29 1
    22   11   30 1
    23   12   13 2
    24   12   36 1
    25   14   15 am
    26   14   31 1
    27   15   16 2
    28   15   17 1
    29   17   18 1
    30   17   32 1
    31   17   33 1
    32   18   19 1
    33   18   34 1
    34   18   35 1
    35   19   20 2
    36   19   37 1
    37   21   22 2
    38   21   38 1
@<TRIPOS>MOLECULE
ZINC02504408
   26    25     0     0     0
SMALL
USER_CHARGES
4-(4-hydroxy-4-oxo-butyl)disulfanylbutanoic acid
@<TRIPOS>ATOM
      1 C1          2.6961    3.5480   -0.0046 C.3       1 <0>        -0.0955
      2 C2          1.2350    3.0943    0.0069 C.3       1 <0>        -0.1542
      3 C3          1.1765    1.5884   -0.0006 C.2       1 <0>         0.4605
      4 O1          2.1986    0.9442   -0.0139 O.co2     1 <0>        -0.6382
      5 C4          2.7554    5.0768    0.0030 C.3       1 <0>        -0.0963
      6 S1          4.4878    5.6148   -0.0106 S.3       1 <0>        -0.1543
      7 S2          5.1453    5.1222   -1.8888 S.3       1 <0>        -0.1543
      8 C5          4.6530    6.5374   -2.9113 C.3       1 <0>        -0.0964
      9 C6          5.5060    7.7533   -2.5438 C.3       1 <0>        -0.0955
     10 C7          5.0908    8.9470   -3.4062 C.3       1 <0>        -0.1541
     11 C8          5.9309   10.1446   -3.0442 C.2       1 <0>         0.4605
     12 O2          6.7751   10.0528   -2.1846 O.co2     1 <0>        -0.6382
     13 H1          3.2039    3.1603    0.8785 H         1 <0>         0.0711
     14 H2          3.1869    3.1698   -0.9014 H         1 <0>         0.0715
     15 H3          0.7271    3.4820   -0.8762 H         1 <0>         0.0631
     16 H4          0.7441    3.4725    0.9036 H         1 <0>         0.0633
     17 H5          2.2476    5.4646   -0.8801 H         1 <0>         0.0831
     18 H6          2.2646    5.4550    0.8998 H         1 <0>         0.1078
     19 H7          4.8011    6.2944   -3.9635 H         1 <0>         0.1078
     20 H8          3.6016    6.7646   -2.7353 H         1 <0>         0.0831
     21 H9          5.3579    7.9963   -1.4916 H         1 <0>         0.0715
     22 H10         6.5574    7.5261   -2.7198 H         1 <0>         0.0711
     23 H11         5.2388    8.7040   -4.4584 H         1 <0>         0.0633
     24 H12         4.0394    9.1741   -3.2302 H         1 <0>         0.0631
     25 O3         -0.0110    0.9628    0.0073 O.co2     1 <0>        -0.7820
     26 O4          5.7413   11.3132   -3.6767 O.co2     1 <0>        -0.7820
@<TRIPOS>BOND
     1    1    2 1
     2    1    5 1
     3    1   13 1
     4    1   14 1
     5    2    3 1
     6    2   15 1
     7    2   16 1
     8    3    4 2
     9    3   25 1
    10    5    6 1
    11    5   17 1
    12    5   18 1
    13    6    7 1
    14    7    8 1
    15    8    9 1
    16    8   19 1
    17    8   20 1
    18    9   10 1
    19    9   21 1
    20    9   22 1
    21   10   11 1
    22   10   23 1
    23   10   24 1
    24   11   12 2
    25   11   26 1
@<TRIPOS>MOLECULE
ZINC37464957
   35    36     0     0     0
SMALL
USER_CHARGES

@<TRIPOS>ATOM
      1 C1         -0.0187    1.5258    0.0104 C.3       1 <0>        -0.1430
      2 C2          0.0021   -0.0041    0.0020 C.3       1 <0>        -0.0871
      3 H1          0.5120   -0.3573   -0.8943 H         1 <0>         0.0723
      4 C3         -1.4336   -0.5366    0.0189 C.3       1 <0>        -0.1076
      5 C4         -1.4324   -2.0454   -0.2367 C.3       1 <0>        -0.0570
      6 C5         -0.4635   -2.7037    0.7345 C.2       1 <0>        -0.0163
      7 C6          0.4847   -1.9863    1.3744 C.2       1 <0>        -0.2550
      8 S1          1.3439   -3.1671    2.3725 S.3       1 <0>         0.0125
      9 C7          0.4937   -4.5575    1.9680 C.2       1 <0>         0.2764
     10 C8         -0.4589   -4.1197    1.0607 C.2       1 <0>        -0.2707
     11 C9         -1.3981   -5.0248    0.4697 C.1       1 <0>         0.3325
     12 N1         -2.1432   -5.7427    0.0009 N.1       1 <0>        -0.5231
     13 N2          0.6975   -5.8449    2.4329 N.2       1 <0>        -1.0225
     14 S2          1.9044   -6.1495    3.5251 S.o2      1 <0>         2.5201
     15 O1          3.1064   -5.8432    2.8320 O.2       1 <0>        -1.0146
     16 O2          1.5331   -5.4220    4.6880 O.2       1 <0>        -1.0146
     17 C10         1.8046   -7.9323    3.8451 C.3       1 <0>        -0.5439
     18 C11         2.8855   -8.3310    4.8518 C.3       1 <0>        -0.1771
     19 C12         2.8026   -9.8121    5.1177 C.2       1 <0>         0.5027
     20 O3          1.9573  -10.4862    4.5541 O.co2     1 <0>        -0.6915
     21 O4          3.5808  -10.3362    5.8963 O.co2     1 <0>        -0.7081
     22 C13         0.7393   -0.5154    1.2485 C.3       1 <0>        -0.0101
     23 H2          1.0039    1.9031    0.0027 H         1 <0>         0.0524
     24 H3         -0.5459    1.8868   -0.8726 H         1 <0>         0.0500
     25 H4         -0.5289    1.8773    0.9072 H         1 <0>         0.0531
     26 H5         -1.8834   -0.3344    0.9909 H         1 <0>         0.0638
     27 H6         -2.0138   -0.0383   -0.7578 H         1 <0>         0.0576
     28 H7         -2.4348   -2.4437   -0.0796 H         1 <0>         0.0675
     29 H8         -1.1145   -2.2426   -1.2605 H         1 <0>         0.0694
     30 H9          0.8225   -8.1741    4.2515 H         1 <0>         0.1213
     31 H10         1.9566   -8.4777    2.9137 H         1 <0>         0.1213
     32 H11         3.8675   -8.0892    4.4454 H         1 <0>         0.0696
     33 H12         2.7334   -7.7857    5.7833 H         1 <0>         0.0696
     34 H13         1.8088   -0.3333    1.1434 H         1 <0>         0.0655
     35 H14         0.3640   -0.0020    2.1338 H         1 <0>         0.0646
@<TRIPOS>BOND
     1    1    2 1
     2    1   23 1
     3    1   24 1
     4    1   25 1
     5    2    3 1
     6    2   22 1
     7    2    4 1
     8    4    5 1
     9    4   26 1
    10    4   27 1
    11    5    6 1
    12    5   28 1
    13    5   29 1
    14    6   10 1
    15    6    7 2
    16    7    8 1
    17    7   22 1
    18    8    9 1
    19    9   10 2
    20    9   13 1
    21   10   11 1
    22   11   12 3
    23   13   14 1
    24   14   15 2
    25   14   16 2
    26   14   17 1
    27   17   18 1
    28   17   30 1
    29   17   31 1
    30   18   19 1
    31   18   32 1
    32   18   33 1
    33   19   20 2
    34   19   21 1
    35   22   34 1
    36   22   35 1
@<TRIPOS>MOLECULE
ZINC57959041
   26    26     0     0     0
SMALL
USER_CHARGES

@<TRIPOS>ATOM
      1 C1         -0.0173    1.4248    0.0099 C.3       1 <0>         0.0319
      2 O1          0.0021   -0.0041    0.0020 O.3       1 <0>        -0.3148
      3 C2         -1.2005   -0.6376    0.0101 C.ar      1 <0>         0.0948
      4 C3         -2.3747    0.1008    0.0195 C.ar      1 <0>        -0.2012
      5 C4         -3.5958   -0.5453    0.0272 C.ar      1 <0>        -0.0945
      6 C5         -3.6488   -1.9271    0.0260 C.ar      1 <0>        -0.0271
      7 C6         -2.4805   -2.6661    0.0172 C.ar      1 <0>        -0.0327
      8 C7         -1.2558   -2.0246    0.0032 C.ar      1 <0>        -0.0615
      9 Cl1         0.2112   -2.9527   -0.0152 Cl        1 <0>        -0.0869
     10 C8         -4.9825   -2.6286    0.0350 C.3       1 <0>        -0.1081
     11 H1         -5.7824   -1.8883    0.0416 H         1 <0>         0.0690
     12 C9         -5.1072   -3.5030   -1.2144 C.3       1 <0>        -0.1514
     13 C10        -6.4863   -4.1080   -1.2685 C.2       1 <0>         0.4871
     14 O2         -7.2946   -3.8626   -0.3893 O.co2     1 <0>        -0.6391
     15 O3         -6.7939   -4.8429   -2.1914 O.co2     1 <0>        -0.7463
     16 C11        -5.0874   -3.4926    1.2653 C.2       1 <0>         0.4980
     17 O4         -4.1647   -3.5347    2.0611 O.co2     1 <0>        -0.7286
     18 O5         -6.0950   -4.1494    1.4648 O.co2     1 <0>        -0.6377
     19 H2          1.0053    1.8021    0.0021 H         1 <0>         0.0896
     20 H3         -0.5445    1.7859   -0.8732 H         1 <0>         0.0494
     21 H4         -0.5275    1.7763    0.9067 H         1 <0>         0.0502
     22 H5         -2.3343    1.1800    0.0211 H         1 <0>         0.1230
     23 H6         -4.5101    0.0295    0.0345 H         1 <0>         0.1220
     24 H7         -2.5245   -3.7452    0.0170 H         1 <0>         0.1354
     25 H8         -4.9429   -2.8930   -2.1026 H         1 <0>         0.0354
     26 H9         -4.3628   -4.2983   -1.1770 H         1 <0>         0.0441
@<TRIPOS>BOND
     1    1    2 1
     2    1   19 1
     3    1   20 1
     4    1   21 1
     5    2    3 1
     6    3    8 ar
     7    3    4 ar
     8    4    5 ar
     9    4   22 1
    10    5    6 ar
    11    5   23 1
    12    6    7 ar
    13    6   10 1
    14    7    8 ar
    15    7   24 1
    16    8    9 1
    17   10   11 1
    18   10   12 1
    19   10   16 1
    20   12   13 1
    21   12   25 1
    22   12   26 1
    23   13   14 2
    24   13   15 1
    25   16   17 2
    26   16   18 1
@<TRIPOS>MOLECULE
ZINC63155499
   32    33     0     0     0
SMALL
USER_CHARGES

@<TRIPOS>ATOM
      1 C1         -0.0168    1.3863    0.0097 C.ar      1 <0>        -0.2380
      2 C2          1.1665    2.0996    0.0022 C.ar      1 <0>        -0.1267
      3 C3          2.3792    1.4355   -0.0129 C.ar      1 <0>         0.0249
      4 C4          2.4086    0.0359   -0.0207 C.ar      1 <0>        -0.1391
      5 C5          1.2098   -0.6819   -0.0131 C.ar      1 <0>        -0.1146
      6 C6          0.0021   -0.0041    0.0020 C.ar      1 <0>         0.2513
      7 N1         -1.2000   -0.7189    0.0096 N.2       1 <0>        -1.1028
      8 S1         -2.6446    0.0906    0.0277 S.o2      1 <0>         2.5254
      9 O1         -2.6544    0.7871    1.2662 O.2       1 <0>        -1.0173
     10 O2         -2.6779    0.8003   -1.2029 O.2       1 <0>        -1.0379
     11 C7         -3.9082   -1.2109    0.0327 C.3       1 <0>        -0.6054
     12 C8         -5.2983   -0.5721    0.0494 C.3       1 <0>         0.0895
     13 H1         -5.4318    0.0647   -0.8252 H         1 <0>         0.0798
     14 C9         -6.3932   -1.6676    0.0892 C.3       1 <0>        -0.1435
     15 C10        -7.5693   -0.8857    0.7351 C.3       1 <0>        -0.1568
     16 C11        -6.8367    0.0635    1.7076 C.3       1 <0>         0.0479
     17 O3         -5.4827    0.1894    1.2534 O.3       1 <0>        -0.3657
     18 C12         3.6982   -0.6772   -0.0372 C.2       1 <0>         0.5267
     19 O4          3.7207   -1.9001   -0.0440 O.co2     1 <0>        -0.6976
     20 O5          4.7459   -0.0461   -0.0443 O.co2     1 <0>        -0.6917
     21 F1          3.5341    2.1364   -0.0206 F         1 <0>        -0.1480
     22 H2         -0.9606    1.9110    0.0260 H         1 <0>         0.1002
     23 H3          1.1442    3.1794    0.0078 H         1 <0>         0.1041
     24 H4          1.2249   -1.7618   -0.0193 H         1 <0>         0.1240
     25 H5         -3.8011   -1.8248   -0.8616 H         1 <0>         0.1301
     26 H6         -3.7841   -1.8343    0.9182 H         1 <0>         0.1255
     27 H7         -6.6497   -2.0035   -0.9156 H         1 <0>         0.0836
     28 H8         -6.0877   -2.5058    0.7155 H         1 <0>         0.0826
     29 H9         -8.1195   -0.3209   -0.0175 H         1 <0>         0.0751
     30 H10        -8.2323   -1.5601    1.2770 H         1 <0>         0.0796
     31 H11        -7.3189    1.0410    1.7038 H         1 <0>         0.0663
     32 H12        -6.8528   -0.3541    2.7143 H         1 <0>         0.0684
@<TRIPOS>BOND
     1    1    6 ar
     2    1    2 ar
     3    1   22 1
     4    2    3 ar
     5    2   23 1
     6    3    4 ar
     7    3   21 1
     8    4    5 ar
     9    4   18 1
    10    5    6 ar
    11    5   24 1
    12    6    7 1
    13    7    8 1
    14    8    9 2
    15    8   10 2
    16    8   11 1
    17   11   12 1
    18   11   25 1
    19   11   26 1
    20   12   13 1
    21   12   17 1
    22   12   14 1
    23   14   15 1
    24   14   27 1
    25   14   28 1
    26   15   16 1
    27   15   29 1
    28   15   30 1
    29   16   17 1
    30   16   31 1
    31   16   32 1
    32   18   19 2
    33   18   20 1
@<TRIPOS>MOLECULE
ZINC01576429
   16    15     0     0     0
SMALL
USER_CHARGES
2-(carboxymethyl-formyl-amino)acetic acid
@<TRIPOS>ATOM
      1 C1         -1.2105    3.3314    0.0259 C.3       1 <0>         0.0758
      2 C2         -1.2240    3.8414   -1.3921 C.2       1 <0>         0.4480
      3 O1         -1.2177    3.0613   -2.3148 O.co2     1 <0>        -0.6287
      4 N1         -1.1906    1.8666    0.0178 N.am      1 <0>        -0.5615
      5 C3         -2.4492    1.1169    0.0197 C.3       1 <0>         0.0796
      6 C4         -2.8741    0.8521    1.4412 C.2       1 <0>         0.4573
      7 O2         -2.1952    1.2489    2.3585 O.co2     1 <0>        -0.6347
      8 C5         -0.0144    1.2086    0.0087 C.2       1 <0>         0.5020
      9 O3          0.0021   -0.0041    0.0020 O.2       1 <0>        -0.5904
     10 H1         -2.1028    3.6798    0.5459 H         1 <0>         0.0811
     11 H2         -0.3231    3.7040    0.5376 H         1 <0>         0.0770
     12 H3         -3.2192    1.6984   -0.4873 H         1 <0>         0.0740
     13 H4         -2.3084    0.1691   -0.4999 H         1 <0>         0.0814
     14 H5          0.9135    1.7613    0.0028 H         1 <0>         0.1055
     15 O4         -1.2431    5.1623   -1.6301 O.co2     1 <0>        -0.7813
     16 O5         -4.0067    0.1755    1.6881 O.co2     1 <0>        -0.7851
@<TRIPOS>BOND
     1    1    2 1
     2    1    4 1
     3    1   10 1
     4    1   11 1
     5    2    3 2
     6    2   15 1
     7    4    5 1
     8    4    8 am
     9    5    6 1
    10    5   12 1
    11    5   13 1
    12    6    7 2
    13    6   16 1
    14    8    9 2
    15    8   14 1
@<TRIPOS>MOLECULE
ZINC16951674
   31    33     0     0     0
SMALL
USER_CHARGES
(1R,4S,5S,6S)-spiro[bicyclo[2.2.1]hept-2-ene-7,1'-cyclopentane]-5,6-dicarboxylic acid
@<TRIPOS>ATOM
      1 C1          0.0394    1.4125    0.1311 C.3       1 <0>        -0.1232
      2 C2          0.1105   -0.1310    0.1272 C.3       1 <0>        -0.1191
      3 C3          1.4693   -0.5076   -0.5062 C.3       1 <0>        -0.0973
      4 C4          2.1616    0.8062   -0.8015 C.3       1 <0>        -0.0615
      5 C5          1.5229    1.8727    0.0742 C.3       1 <0>        -0.1173
      6 C6          2.1752    1.1777   -2.3046 C.3       1 <0>        -0.0480
      7 H1          1.2092    1.2424   -2.8054 H         1 <0>         0.0797
      8 C7          3.1520    0.1089   -2.8251 C.2       1 <0>        -0.0958
      9 C8          4.0349   -0.1425   -1.8752 C.2       1 <0>        -0.2226
     10 C9          3.7023    0.7428   -0.6615 C.3       1 <0>        -0.0381
     11 H2          4.0971    0.4200    0.3018 H         1 <0>         0.0905
     12 C10         4.0886    2.1802   -1.1507 C.3       1 <0>        -0.1019
     13 H3          5.1005    2.1885   -1.5556 H         1 <0>         0.0658
     14 C11         3.0522    2.4753   -2.2657 C.3       1 <0>        -0.1152
     15 H4          2.4443    3.3415   -2.0048 H         1 <0>         0.0890
     16 C12         3.7394    2.6908   -3.5894 C.2       1 <0>         0.4750
     17 O1          3.5685    1.9077   -4.4935 O.co2     1 <0>        -0.6514
     18 C13         3.9570    3.1760   -0.0273 C.2       1 <0>         0.4850
     19 O2          3.3035    4.1801   -0.1835 O.co2     1 <0>        -0.6374
     20 H5         -0.5035    1.7703   -0.7437 H         1 <0>         0.0566
     21 H6         -0.4345    1.7689    1.0457 H         1 <0>         0.0513
     22 H7          0.0563   -0.5100    1.1477 H         1 <0>         0.0515
     23 H8         -0.7055   -0.5410   -0.4679 H         1 <0>         0.0501
     24 H9          2.0613   -1.0959    0.1949 H         1 <0>         0.0573
     25 H10         1.3125   -1.0674   -1.4282 H         1 <0>         0.0605
     26 H11         1.6061    2.8557   -0.3893 H         1 <0>         0.0974
     27 H12         1.9667    1.8736    1.0698 H         1 <0>         0.0676
     28 H13         3.1211   -0.3559   -3.7995 H         1 <0>         0.1132
     29 H14         4.8498   -0.8484   -1.9394 H         1 <0>         0.1063
     30 O3          4.5414    3.7529   -3.7642 O.co2     1 <0>        -0.7768
     31 O4          4.5658    2.9474    1.1469 O.co2     1 <0>        -0.7912
@<TRIPOS>BOND
     1    1    5 1
     2    1    2 1
     3    1   20 1
     4    1   21 1
     5    2    3 1
     6    2   22 1
     7    2   23 1
     8    3    4 1
     9    3   24 1
    10    3   25 1
    11    4   10 1
    12    4    5 1
    13    4    6 1
    14    5   26 1
    15    5   27 1
    16    6    7 1
    17    6   14 1
    18    6    8 1
    19    8    9 2
    20    8   28 1
    21    9   10 1
    22    9   29 1
    23   10   11 1
    24   10   12 1
    25   12   13 1
    26   12   14 1
    27   12   18 1
    28   14   15 1
    29   14   16 1
    30   16   17 2
    31   16   30 1
    32   18   19 2
    33   18   31 1
@<TRIPOS>MOLECULE
ZINC36154239
   34    35     0     0     0
SMALL
USER_CHARGES

@<TRIPOS>ATOM
      1 C1          2.5005   -0.8008   -1.3734 C.3       1 <0>        -0.1050
      2 C2          1.2085   -1.1075   -0.6608 C.ar      1 <0>        -0.0819
      3 C3          0.0061   -0.6879   -1.1996 C.ar      1 <0>        -0.1188
      4 C4         -1.1817   -0.9668   -0.5486 C.ar      1 <0>        -0.0806
      5 C5         -1.1704   -1.6658    0.6424 C.ar      1 <0>        -0.0889
      6 C6          0.0355   -2.0891    1.1861 C.ar      1 <0>         0.1683
      7 C7          1.2263   -1.8121    0.5268 C.ar      1 <0>        -0.0897
      8 N1          0.0504   -2.7976    2.3929 N.pl3     1 <0>        -0.4502
      9 C8          0.1444   -2.1388    3.5864 C.2       1 <0>         0.4546
     10 O1          0.2242   -0.7919    3.6271 O.3       1 <0>        -0.5950
     11 C9          0.1553   -2.8851    4.7537 C.2       1 <0>        -0.0418
     12 N2          0.0754   -4.2053    4.6872 N.2       1 <0>        -0.1652
     13 N3         -0.0126   -4.8134    3.5580 N.2       1 <0>        -0.3479
     14 C10        -0.0333   -4.1445    2.4009 C.2       1 <0>         0.4361
     15 S1         -0.1597   -5.0000    0.9233 S.2       1 <0>        -0.7011
     16 C11         0.2580   -2.1984    6.0912 C.3       1 <0>        -0.0100
     17 C12        -1.1440   -1.9939    6.6686 C.3       1 <0>        -0.1699
     18 C13        -1.0413   -1.3073    8.0061 C.2       1 <0>         0.4974
     19 O2          0.0520   -1.0092    8.4559 O.co2     1 <0>        -0.7001
     20 O3         -2.0514   -1.0499    8.6384 O.co2     1 <0>        -0.7154
     21 C14        -2.4897   -0.5072   -1.1393 C.3       1 <0>        -0.1058
     22 H1          2.7334   -1.6086   -2.0672 H         1 <0>         0.0680
     23 H2          2.3982    0.1337   -1.9250 H         1 <0>         0.0628
     24 H3          3.3044   -0.7058   -0.6434 H         1 <0>         0.0632
     25 H4         -0.0054   -0.1408   -2.1308 H         1 <0>         0.1194
     26 H5         -2.0983   -1.8827    1.1507 H         1 <0>         0.1181
     27 H6          2.1653   -2.1437    0.9447 H         1 <0>         0.1174
     28 H7          0.8449   -2.8151    6.7721 H         1 <0>         0.0750
     29 H8          0.7444   -1.2310    5.9666 H         1 <0>         0.0815
     30 H9         -1.7309   -1.3773    5.9877 H         1 <0>         0.0533
     31 H10        -1.6303   -2.9614    6.7932 H         1 <0>         0.0569
     32 H11        -2.8816   -1.2803   -1.8001 H         1 <0>         0.0683
     33 H12        -3.2038   -0.3181   -0.3378 H         1 <0>         0.0641
     34 H13        -2.3298    0.4094   -1.7072 H         1 <0>         0.0629
@<TRIPOS>BOND
     1    1    2 1
     2    1   22 1
     3    1   23 1
     4    1   24 1
     5    2    7 ar
     6    2    3 ar
     7    3    4 ar
     8    3   25 1
     9    4    5 ar
    10    4   21 1
    11    5    6 ar
    12    5   26 1
    13    6    7 ar
    14    6    8 1
    15    7   27 1
    16    8   14 1
    17    8    9 1
    18    9   10 1
    19    9   11 2
    20   11   12 1
    21   11   16 1
    22   12   13 2
    23   13   14 1
    24   14   15 2
    25   16   17 1
    26   16   28 1
    27   16   29 1
    28   17   18 1
    29   17   30 1
    30   17   31 1
    31   18   19 2
    32   18   20 1
    33   21   32 1
    34   21   33 1
    35   21   34 1
@<TRIPOS>MOLECULE
ZINC44221535
   27    27     0     0     0
SMALL
USER_CHARGES

@<TRIPOS>ATOM
      1 C1         -2.1224    1.6423    0.3178 C.3       1 <0>        -0.1116
      2 C2         -2.0594    0.1385    0.2419 C.2       1 <0>        -0.1297
      3 C3         -1.7641   -0.5853    1.3517 C.2       1 <0>        -0.1068
      4 C4         -1.3412    0.0715    2.5342 C.2       1 <0>         0.0272
      5 O1         -1.1159    1.3931    2.6639 O.3       1 <0>        -0.1413
      6 C5         -0.7269    1.6594    3.9256 C.2       1 <0>         0.0265
      7 C6         -0.6999    0.4711    4.6345 C.2       1 <0>        -0.2107
      8 C7         -1.0954   -0.5353    3.7534 C.2       1 <0>        -0.2108
      9 C8         -0.4006    2.9391    4.4399 C.2       1 <0>        -0.1071
     10 C9         -0.3373    4.0092    3.6072 C.2       1 <0>        -0.1295
     11 C10        -0.1644    5.3083    4.1376 C.2       1 <0>         0.5108
     12 O2         -0.0717    5.4682    5.3489 O.co2     1 <0>        -0.6984
     13 O3         -0.1072    6.2743    3.3859 O.co2     1 <0>        -0.6932
     14 C11        -0.4513    3.8125    2.1175 C.3       1 <0>        -0.1112
     15 C12        -2.3079   -0.5184   -0.9851 C.2       1 <0>         0.5108
     16 O4         -2.2566   -1.7412   -1.0467 O.co2     1 <0>        -0.6985
     17 O5         -2.5744    0.1349   -1.9869 O.co2     1 <0>        -0.6933
     18 H1         -1.1359    2.0581    0.1126 H         1 <0>         0.0653
     19 H2         -2.8339    2.0138   -0.4197 H         1 <0>         0.0675
     20 H3         -2.4430    1.9427    1.3153 H         1 <0>         0.0637
     21 H4         -1.8514   -1.6616    1.3335 H         1 <0>         0.1457
     22 H5         -0.4284    0.3473    5.6724 H         1 <0>         0.1417
     23 H6         -1.1896   -1.5873    3.9790 H         1 <0>         0.1418
     24 H7         -0.2024    3.0628    5.4943 H         1 <0>         0.1457
     25 H8         -1.5035    3.7684    1.8363 H         1 <0>         0.0660
     26 H9          0.0275    4.6459    1.6033 H         1 <0>         0.0685
     27 H10         0.0396    2.8811    1.8353 H         1 <0>         0.0607
@<TRIPOS>BOND
     1    1    2 1
     2    1   18 1
     3    1   19 1
     4    1   20 1
     5    2    3 2
     6    2   15 1
     7    3    4 1
     8    3   21 1
     9    4    8 2
    10    4    5 1
    11    5    6 1
    12    6    7 2
    13    6    9 1
    14    7    8 1
    15    7   22 1
    16    8   23 1
    17    9   10 2
    18    9   24 1
    19   10   11 1
    20   10   14 1
    21   11   12 2
    22   11   13 1
    23   14   25 1
    24   14   26 1
    25   14   27 1
    26   15   16 2
    27   15   17 1
@<TRIPOS>MOLECULE
ZINC59457502
   22    23     0     0     0
SMALL
USER_CHARGES

@<TRIPOS>ATOM
      1 C1         -0.0167    1.3824    0.0096 C.ar      1 <0>        -0.1113
      2 C2          1.1636    2.0976    0.0022 C.ar      1 <0>        -0.0772
      3 C3          2.3767    1.4271   -0.0130 C.ar      1 <0>         0.0509
      4 C4          2.4016    0.0223   -0.0208 C.ar      1 <0>         0.0054
      5 C5          1.1982   -0.6868   -0.0131 C.ar      1 <0>         0.0038
      6 C6          0.0021   -0.0041    0.0020 C.ar      1 <0>        -0.0982
      7 N1         -1.2728   -0.7560    0.0102 N.pl3     1 <0>         0.0639
      8 O1         -2.3254   -0.1613    0.0234 O.2       1 <0>        -0.2061
      9 O2         -1.2617   -1.9649    0.0036 O.3       1 <0>        -0.2087
     10 N2          3.7069   -0.3548   -0.0353 N.2       1 <0>        -0.5384
     11 C7          4.4724    0.7090   -0.0369 C.2       1 <0>         0.2132
     12 N3          3.7002    1.8362   -0.0234 N.2       1 <0>        -0.5570
     13 S1          6.2342    0.6886   -0.0529 S.3       1 <0>        -0.0303
     14 C8          6.6934    2.4435   -0.0483 C.3       1 <0>         0.2502
     15 C9          8.1950    2.5699   -0.0612 C.2       1 <0>         0.5019
     16 O3          8.8120    2.6157    0.9893 O.co2     1 <0>        -0.6404
     17 O4          8.7929    2.6263   -1.1223 O.co2     1 <0>        -0.6405
     18 F1          6.1631    3.0673   -1.1827 F         1 <0>        -0.1813
     19 F2          6.1838    3.0558    1.1017 F         1 <0>        -0.1813
     20 H1         -0.9612    1.9060    0.0260 H         1 <0>         0.1301
     21 H2          1.1422    3.1774    0.0079 H         1 <0>         0.1216
     22 H3          1.2056   -1.7667   -0.0190 H         1 <0>         0.1299
@<TRIPOS>BOND
     1    1    6 ar
     2    1    2 ar
     3    1   20 1
     4    2    3 ar
     5    2   21 1
     6    3   12 1
     7    3    4 ar
     8    4    5 ar
     9    4   10 1
    10    5    6 ar
    11    5   22 1
    12    6    7 1
    13    7    8 2
    14    7    9 1
    15   10   11 2
    16   11   12 1
    17   11   13 1
    18   13   14 1
    19   14   15 1
    20   14   18 1
    21   14   19 1
    22   15   16 2
    23   15   17 1
@<TRIPOS>MOLECULE
ZINC05547134
   37    38     0     0     0
SMALL
USER_CHARGES
2-[3-(carboxymethyl)-4,7-dimethyl-2-oxo-chromen-5-yl]oxypropanoic acid
@<TRIPOS>ATOM
      1 C1         -2.7310   -2.4855   -0.7650 C.3       1 <0>        -0.1109
      2 C2         -1.3773   -1.8436   -0.6021 C.ar      1 <0>        -0.0066
      3 C3         -1.2889   -0.4822   -0.3898 C.ar      1 <0>        -0.1896
      4 C4         -0.0479    0.1194   -0.2379 C.ar      1 <0>         0.1797
      5 C5          1.1156   -0.6682   -0.3027 C.ar      1 <0>        -0.1753
      6 C6          2.4198   -0.0241   -0.1414 C.2       1 <0>         0.0377
      7 C7          2.4513    1.3184    0.0658 C.2       1 <0>        -0.1974
      8 C8          1.2456    2.0476    0.1187 C.2       1 <0>         0.5231
      9 O1          1.2874    3.2505    0.3046 O.2       1 <0>        -0.4734
     10 O2          0.0530    1.4500   -0.0297 O.3       1 <0>        -0.2772
     11 C9          3.7707    2.0260    0.2373 C.3       1 <0>        -0.1059
     12 C10         4.2777    2.4767   -1.1084 C.2       1 <0>         0.4729
     13 O3          3.6337    2.2469   -2.1045 O.co2     1 <0>        -0.6317
     14 C11         3.6931   -0.8279   -0.2029 C.3       1 <0>        -0.1175
     15 C12         1.0133   -2.0512   -0.5189 C.ar      1 <0>         0.2058
     16 C13        -0.2366   -2.6262   -0.6666 C.ar      1 <0>        -0.2479
     17 O4          2.1310   -2.8181   -0.5825 O.3       1 <0>        -0.2601
     18 C14         1.9436   -4.2260   -0.7398 C.3       1 <0>         0.0270
     19 H1          1.0925   -4.4082   -1.3960 H         1 <0>         0.0764
     20 C15         1.6790   -4.8611    0.6268 C.3       1 <0>        -0.1546
     21 C16         3.1832   -4.8334   -1.3444 C.2       1 <0>         0.4737
     22 O5          4.1622   -4.1499   -1.5296 O.co2     1 <0>        -0.6033
     23 H2         -3.0088   -2.4851   -1.8190 H         1 <0>         0.0741
     24 H3         -2.6929   -3.5117   -0.3996 H         1 <0>         0.0690
     25 H4         -3.4705   -1.9238   -0.1942 H         1 <0>         0.0677
     26 H5         -2.1872    0.1154   -0.3414 H         1 <0>         0.1344
     27 H6          3.6366    2.8930    0.8841 H         1 <0>         0.0792
     28 H7          4.4925    1.3447    0.6879 H         1 <0>         0.0845
     29 H8          3.9817   -0.9722   -1.2440 H         1 <0>         0.0925
     30 H9          4.4851   -0.2948    0.3232 H         1 <0>         0.0709
     31 H10         3.5334   -1.7980    0.2678 H         1 <0>         0.0940
     32 H11        -0.3230   -3.6899   -0.8325 H         1 <0>         0.1385
     33 H12         1.5361   -5.9350    0.5069 H         1 <0>         0.0762
     34 H13         2.5301   -4.6789    1.2830 H         1 <0>         0.0607
     35 H14         0.7824   -4.4218    1.0642 H         1 <0>         0.0506
     36 O6          5.4447    3.1334   -1.2003 O.co2     1 <0>        -0.7779
     37 O7          3.1996   -6.1336   -1.6774 O.co2     1 <0>        -0.7595
@<TRIPOS>BOND
     1    1    2 1
     2    1   23 1
     3    1   24 1
     4    1   25 1
     5    2   16 ar
     6    2    3 ar
     7    3    4 ar
     8    3   26 1
     9    4   10 1
    10    4    5 ar
    11    5    6 1
    12    5   15 ar
    13    6    7 2
    14    6   14 1
    15    7    8 1
    16    7   11 1
    17    8    9 2
    18    8   10 1
    19   11   12 1
    20   11   27 1
    21   11   28 1
    22   12   13 2
    23   12   36 1
    24   14   29 1
    25   14   30 1
    26   14   31 1
    27   15   16 ar
    28   15   17 1
    29   16   32 1
    30   17   18 1
    31   18   19 1
    32   18   20 1
    33   18   21 1
    34   20   33 1
    35   20   34 1
    36   20   35 1
    37   21   22 2
    38   21   37 1
@<TRIPOS>MOLECULE
ZINC29967233
   29    30     0     0     0
SMALL
USER_CHARGES
5-[[4-(cyanomethyl)phenyl]sulfamoyl]thiophene-3-carboxylic acid
@<TRIPOS>ATOM
      1 C1         -1.4455    3.1208    1.2185 C.ar      1 <0>        -0.0907
      2 C2         -2.0866    3.4509    2.3963 C.ar      1 <0>        -0.1552
      3 C3         -2.0309    2.5857    3.4817 C.ar      1 <0>         0.2415
      4 C4         -1.3349    1.3882    3.3762 C.ar      1 <0>        -0.1656
      5 C5         -0.7008    1.0616    2.1936 C.ar      1 <0>        -0.0918
      6 C6         -0.7583    1.9253    1.1151 C.ar      1 <0>        -0.1676
      7 C7         -0.0651    1.5656   -0.1738 C.3       1 <0>         0.0262
      8 C8         -0.9928    0.8172   -1.0375 C.1       1 <0>         0.2245
      9 N1         -1.7088    0.2396   -1.7041 N.1       1 <0>        -0.4649
     10 N2         -2.6737    2.9189    4.6761 N.2       1 <0>        -1.0980
     11 S1         -1.7879    3.4304    5.9784 S.o2      1 <0>         2.6307
     12 O1         -2.7183    3.7325    7.0091 O.2       1 <0>        -0.9983
     13 O2         -0.7387    2.4878    6.1514 O.2       1 <0>        -1.0378
     14 C9         -1.0267    4.9535    5.5248 C.2       1 <0>        -0.7302
     15 C10        -1.4666    6.2076    5.7447 C.2       1 <0>        -0.0006
     16 C11        -0.6387    7.2867    5.2662 C.2       1 <0>        -0.1873
     17 C12         0.5284    6.9403    4.6155 C.2       1 <0>        -0.1525
     18 S2          0.5075    5.2094    4.6572 S.3       1 <0>         0.1243
     19 C13        -1.0228    8.6929    5.4581 C.2       1 <0>         0.5094
     20 O3         -2.0567    8.9671    6.0356 O.co2     1 <0>        -0.6343
     21 O4         -0.2285    9.6780    4.9937 O.co2     1 <0>        -0.7673
     22 H1         -1.4844    3.7952    0.3758 H         1 <0>         0.1063
     23 H2         -2.6269    4.3828    2.4750 H         1 <0>         0.1129
     24 H3         -1.2900    0.7131    4.2180 H         1 <0>         0.1147
     25 H4         -0.1598    0.1306    2.1109 H         1 <0>         0.1048
     26 H5          0.2537    2.4846   -0.6875 H         1 <0>         0.1097
     27 H6          0.8153    0.9434    0.0446 H         1 <0>         0.1089
     28 H7         -2.3971    6.3966    6.2594 H         1 <0>         0.1440
     29 H8          1.2744    7.5916    4.1845 H         1 <0>         0.1842
@<TRIPOS>BOND
     1    1    6 ar
     2    1    2 ar
     3    1   22 1
     4    2    3 ar
     5    2   23 1
     6    3    4 ar
     7    3   10 1
     8    4    5 ar
     9    4   24 1
    10    5    6 ar
    11    5   25 1
    12    6    7 1
    13    7    8 1
    14    7   26 1
    15    7   27 1
    16    8    9 3
    17   10   11 1
    18   11   12 2
    19   11   13 2
    20   11   14 1
    21   14   18 1
    22   14   15 2
    23   15   16 1
    24   15   28 1
    25   16   17 2
    26   16   19 1
    27   17   18 1
    28   17   29 1
    29   19   20 2
    30   19   21 1
@<TRIPOS>MOLECULE
ZINC39698193
   35    37     0     0     0
SMALL
USER_CHARGES

@<TRIPOS>ATOM
      1 C1         -0.0187    1.5276    0.0104 C.3       1 <0>        -0.1172
      2 C2          1.3991    2.0935   -0.0001 C.3       1 <0>        -0.1185
      3 C3          2.1269    1.6892   -1.2894 C.3       1 <0>        -0.0882
      4 C4          2.0110    0.1706   -1.3982 C.2       1 <0>         0.0068
      5 C5          3.0404   -0.6614   -1.5385 C.2       1 <0>        -0.2681
      6 C6          2.7830   -2.1241   -1.4382 C.2       1 <0>         0.2391
      7 N1          3.7398   -3.0128   -1.5191 N.2       1 <0>        -0.4565
      8 C7          4.9920   -2.5658   -1.7025 C.2       1 <0>         0.3632
      9 N2          5.3368   -1.2971   -1.8037 N.2       1 <0>        -0.6106
     10 C8          4.4772   -0.2698   -1.7378 C.2       1 <0>         0.5654
     11 O1          4.8343    0.8928   -1.8324 O.2       1 <0>        -0.4763
     12 S1          6.2752   -3.7679   -1.8161 S.3       1 <0>         0.1685
     13 C9          7.7794   -2.7828   -2.0564 C.3       1 <0>        -0.1239
     14 H1          7.8689   -2.0539   -1.2509 H         1 <0>         0.0995
     15 C10         9.0000   -3.7052   -2.0475 C.3       1 <0>        -0.1571
     16 C11         9.1468   -4.3310   -0.6844 C.2       1 <0>         0.4906
     17 O2          8.3490   -4.0640    0.1981 O.co2     1 <0>        -0.6837
     18 O3         10.0633   -5.1044   -0.4642 O.co2     1 <0>        -0.7130
     19 C12         7.7029   -2.0635   -3.3785 C.2       1 <0>         0.5215
     20 O4          8.3352   -1.0354   -3.5506 O.co2     1 <0>        -0.6862
     21 O5          7.0088   -2.5098   -4.2760 O.co2     1 <0>        -0.6954
     22 S2          1.0368   -2.2586   -1.2174 S.3       1 <0>        -0.0430
     23 C13         0.6262   -0.4736   -1.3141 C.3       1 <0>        -0.0543
     24 H2          0.0061   -0.2389   -2.1792 H         1 <0>         0.1444
     25 C14         0.0021   -0.0041    0.0020 C.3       1 <0>        -0.0978
     26 H3         -0.5357    1.8738    0.9054 H         1 <0>         0.0720
     27 H4         -0.5527    1.8833   -0.8707 H         1 <0>         0.0676
     28 H5          1.3539    3.1807    0.0627 H         1 <0>         0.0747
     29 H6          1.9475    1.7081    0.8595 H         1 <0>         0.0674
     30 H7          1.6530    2.1623   -2.1495 H         1 <0>         0.0894
     31 H8          3.1758    1.9804   -1.2329 H         1 <0>         0.1134
     32 H9          8.8692   -4.4881   -2.7945 H         1 <0>         0.0623
     33 H10         9.8942   -3.1269   -2.2800 H         1 <0>         0.0804
     34 H11         0.5976   -0.3669    0.8398 H         1 <0>         0.0816
     35 H12        -1.0163   -0.3846    0.0807 H         1 <0>         0.0819
@<TRIPOS>BOND
     1    1   25 1
     2    1    2 1
     3    1   26 1
     4    1   27 1
     5    2    3 1
     6    2   28 1
     7    2   29 1
     8    3    4 1
     9    3   30 1
    10    3   31 1
    11    4   23 1
    12    4    5 2
    13    5   10 1
    14    5    6 1
    15    6    7 2
    16    6   22 1
    17    7    8 1
    18    8    9 2
    19    8   12 1
    20    9   10 1
    21   10   11 2
    22   12   13 1
    23   13   14 1
    24   13   15 1
    25   13   19 1
    26   15   16 1
    27   15   32 1
    28   15   33 1
    29   16   17 2
    30   16   18 1
    31   19   20 2
    32   19   21 1
    33   22   23 1
    34   23   24 1
    35   23   25 1
    36   25   34 1
    37   25   35 1
@<TRIPOS>MOLECULE
ZINC49946869
   32    34     0     0     0
SMALL
USER_CHARGES

@<TRIPOS>ATOM
      1 C1         -0.0187    1.5258    0.0104 C.3       1 <0>        -0.1324
      2 C2          0.0021   -0.0041    0.0020 C.3       1 <0>        -0.1078
      3 S1         -1.6997   -0.6320    0.0149 S.3       1 <0>        -0.0235
      4 C3         -1.5080   -2.3834    0.0037 C.2       1 <0>        -0.0887
      5 N1         -0.4046   -3.1198   -0.0050 N.2       1 <0>        -0.2332
      6 N2         -0.4441   -4.3804   -0.0124 N.2       1 <0>        -0.3555
      7 C4         -1.5937   -5.0458   -0.0120 C.2       1 <0>         0.3804
      8 S2         -2.7468   -3.6761    0.0085 S.3       1 <0>        -0.0989
      9 N3         -1.8289   -6.3899   -0.0196 N.2       1 <0>        -0.6016
     10 C5         -0.8311   -7.2249   -0.0283 C.2       1 <0>         0.4453
     11 O1          0.4358   -6.7619   -0.0299 O.3       1 <0>        -0.6284
     12 C6         -1.0909   -8.7094   -0.0366 C.3       1 <0>        -0.0655
     13 H1         -0.3408   -9.2377    0.5519 H         1 <0>         0.1091
     14 C7         -2.5298   -9.0273    0.4778 C.3       1 <0>         0.0876
     15 H2         -2.6539   -9.0313    1.5607 H         1 <0>         0.1163
     16 C8         -3.4475   -8.0741   -0.2920 C.2       1 <0>        -0.0832
     17 C9         -3.4987   -8.5236   -1.5343 C.2       1 <0>        -0.2466
     18 C10        -2.6145   -9.7724   -1.5815 C.3       1 <0>         0.1161
     19 H3         -2.8255  -10.4706   -2.3915 H         1 <0>         0.1223
     20 C11        -1.1435   -9.2557   -1.4887 C.3       1 <0>        -0.1525
     21 H4         -0.9820   -8.4565   -2.2121 H         1 <0>         0.0714
     22 C12        -0.1436  -10.3663   -1.6833 C.2       1 <0>         0.5122
     23 O2         -0.3687  -11.2555   -2.4866 O.co2     1 <0>        -0.7081
     24 O3          0.8905  -10.3757   -1.0374 O.co2     1 <0>        -0.6876
     25 O4         -2.7974  -10.2986   -0.2056 O.3       1 <0>        -0.3767
     26 H5          1.0039    1.9031    0.0027 H         1 <0>         0.0698
     27 H6         -0.5459    1.8868   -0.8726 H         1 <0>         0.0621
     28 H7         -0.5289    1.8773    0.9072 H         1 <0>         0.0619
     29 H8          0.5123   -0.3556   -0.8948 H         1 <0>         0.0876
     30 H9          0.5293   -0.3651    0.8851 H         1 <0>         0.0875
     31 H10        -3.9537   -7.2053    0.1022 H         1 <0>         0.1357
     32 H11        -4.0551   -8.0944   -2.3545 H         1 <0>         0.1246
@<TRIPOS>BOND
     1    1    2 1
     2    1   26 1
     3    1   27 1
     4    1   28 1
     5    2    3 1
     6    2   29 1
     7    2   30 1
     8    3    4 1
     9    4    8 1
    10    4    5 2
    11    5    6 1
    12    6    7 2
    13    7    8 1
    14    7    9 1
    15    9   10 2
    16   10   11 1
    17   10   12 1
    18   12   13 1
    19   12   20 1
    20   12   14 1
    21   14   15 1
    22   14   25 1
    23   14   16 1
    24   16   17 2
    25   16   31 1
    26   17   18 1
    27   17   32 1
    28   18   19 1
    29   18   20 1
    30   18   25 1
    31   20   21 1
    32   20   22 1
    33   22   23 2
    34   22   24 1
@<TRIPOS>MOLECULE
ZINC62326191
   32    33     0     0     0
SMALL
USER_CHARGES

@<TRIPOS>ATOM
      1 C1         -0.0184    1.5028    0.0103 C.3       1 <0>        -0.1068
      2 C2          0.0021   -0.0041    0.0020 C.ar      1 <0>        -0.0315
      3 C3          0.0057   -0.6857   -1.2014 C.ar      1 <0>        -0.2180
      4 C4          0.0259   -2.0697   -1.2132 C.ar      1 <0>         0.0419
      5 C5          0.0413   -2.7641   -0.0242 C.ar      1 <0>        -0.7780
      6 C6          0.0353   -2.0872    1.1903 C.ar      1 <0>         0.2853
      7 C7          0.0228   -0.6975    1.1958 C.ar      1 <0>        -0.1712
      8 N1          0.0422   -2.7980    2.3874 N.2       1 <0>        -0.6956
      9 C8          0.4203   -4.1009    2.5073 C.2       1 <0>         0.4501
     10 N2          0.4720   -4.9612    1.5415 N.2       1 <0>        -1.0158
     11 S1          0.0703   -4.5277   -0.0076 S.o2      1 <0>         2.6211
     12 O1         -1.2657   -4.9619   -0.2216 O.2       1 <0>        -1.0105
     13 O2          1.1509   -4.9281   -0.8390 O.2       1 <0>        -1.0008
     14 S2          0.8786   -4.6629    4.1131 S.3       1 <0>        -0.0058
     15 C9          1.3066   -6.4077    3.8618 C.3       1 <0>        -0.1302
     16 H1          0.4702   -6.9226    3.3891 H         1 <0>         0.0874
     17 C10         2.5401   -6.5057    2.9618 C.3       1 <0>        -0.1257
     18 C11         1.6038   -7.0488    5.1928 C.2       1 <0>         0.5202
     19 O3          1.4668   -8.2520    5.3341 O.co2     1 <0>        -0.6934
     20 O4          1.9811   -6.3642    6.1285 O.co2     1 <0>        -0.6821
     21 C12         0.0307   -2.8142   -2.5234 C.3       1 <0>        -0.1307
     22 H2          1.0042    1.8801    0.0026 H         1 <0>         0.0640
     23 H3         -0.5455    1.8639   -0.8728 H         1 <0>         0.0582
     24 H4         -0.5286    1.8543    0.9071 H         1 <0>         0.0621
     25 H5         -0.0077   -0.1379   -2.1321 H         1 <0>         0.1074
     26 H6          0.0249   -0.1605    2.1329 H         1 <0>         0.1185
     27 H7          2.3252   -6.0419    1.9991 H         1 <0>         0.0751
     28 H8          3.3765   -5.9908    3.4345 H         1 <0>         0.0471
     29 H9          2.7973   -7.5540    2.8108 H         1 <0>         0.0489
     30 H10         1.0593   -2.9787   -2.8442 H         1 <0>         0.0827
     31 H11        -0.4685   -3.7749   -2.3972 H         1 <0>         0.0567
     32 H12        -0.4954   -2.2276   -3.2766 H         1 <0>         0.0694
@<TRIPOS>BOND
     1    1    2 1
     2    1   22 1
     3    1   23 1
     4    1   24 1
     5    2    7 ar
     6    2    3 ar
     7    3    4 ar
     8    3   25 1
     9    4    5 ar
    10    4   21 1
    11    5   11 1
    12    5    6 ar
    13    6    7 ar
    14    6    8 1
    15    7   26 1
    16    8    9 1
    17    9   10 2
    18    9   14 1
    19   10   11 1
    20   11   12 2
    21   11   13 2
    22   14   15 1
    23   15   16 1
    24   15   17 1
    25   15   18 1
    26   17   27 1
    27   17   28 1
    28   17   29 1
    29   18   19 2
    30   18   20 1
    31   21   30 1
    32   21   31 1
    33   21   32 1
@<TRIPOS>MOLECULE
ZINC19428915
   34    35     0     0     0
SMALL
USER_CHARGES
1-[(2,6-dihydroxypyridine-4-carbonyl)amino]cyclohexane-1-carboxylic acid
@<TRIPOS>ATOM
      1 C1          0.7451    6.3371   -0.8600 C.2       1 <0>        -0.2990
      2 C2         -0.1825    5.3525   -1.2095 C.2       1 <0>         0.0307
      3 C3         -0.9863    5.5689   -2.3317 C.2       1 <0>        -0.3381
      4 C4         -0.8432    6.7497   -3.0460 C.2       1 <0>         0.4609
      5 N1          0.0469    7.6580   -2.6828 N.am      1 <0>        -0.5820
      6 C5          0.8297    7.4878   -1.6305 C.2       1 <0>         0.4601
      7 O1          1.7266    8.4508   -1.3001 O.2       1 <0>        -0.6992
      8 O2         -1.6263    6.9754   -4.1308 O.3       1 <0>        -0.7059
      9 C6         -0.3105    4.1110   -0.4108 C.2       1 <0>         0.5498
     10 O3          0.3964    3.9390    0.5624 O.2       1 <0>        -0.4778
     11 N2         -1.2113    3.1726   -0.7637 N.am      1 <0>        -0.7171
     12 C7         -1.3379    1.9451    0.0259 C.3       1 <0>         0.1451
     13 C8         -1.7192    2.3011    1.4642 C.3       1 <0>        -0.1175
     14 C9         -3.0537    3.0496    1.4676 C.3       1 <0>        -0.1145
     15 C10        -4.1389    2.1604    0.8575 C.3       1 <0>        -0.1125
     16 C11        -3.7575    1.8044   -0.5808 C.3       1 <0>        -0.1201
     17 C12        -2.4230    1.0558   -0.5842 C.3       1 <0>        -0.1019
     18 C13        -0.0235    1.2078    0.0226 C.2       1 <0>         0.4565
     19 O4         -0.0086   -0.0004    0.0199 O.co2     1 <0>        -0.6609
     20 O5          1.1305    1.8933    0.0169 O.co2     1 <0>        -0.7215
     21 H1          1.3364    6.2070   -0.0641 H         1 <0>         0.1232
     22 H2         -1.6576    4.8870   -2.6222 H         1 <0>         0.1162
     23 H3          0.1520    8.5874   -3.2618 H         1 <0>         0.4177
     24 H4         -1.8514    3.3283   -1.6446 H         1 <0>         0.4009
     25 H5         -1.8143    1.3794    2.0572 H         1 <0>         0.0548
     26 H6         -0.9390    2.9404    1.9029 H         1 <0>         0.0843
     27 H7         -3.3278    3.3055    2.5017 H         1 <0>         0.0489
     28 H8         -2.9586    3.9713    0.8747 H         1 <0>         0.0639
     29 H9         -4.2339    1.2388    1.4504 H         1 <0>         0.0547
     30 H10        -5.0982    2.6985    0.8599 H         1 <0>         0.0505
     31 H11        -4.5377    1.1650   -1.0194 H         1 <0>         0.0533
     32 H12        -3.6624    2.7260   -1.1738 H         1 <0>         0.0622
     33 H13        -2.1488    0.7999   -1.6183 H         1 <0>         0.0593
     34 H14        -2.5181    0.1342    0.0087 H         1 <0>         0.0749
@<TRIPOS>BOND
     1    1    2 2
     2    1   21 1
     3    1    6 1
     4    2    3 1
     5    2    9 1
     6    3    4 2
     7    3   22 1
     8    4    5 1
     9    4    8 1
    10    5   23 1
    11    5    6 am
    12    6    7 2
    13    9   10 2
    14    9   11 am
    15   11   12 1
    16   11   24 1
    17   12   17 1
    18   12   13 1
    19   12   18 1
    20   13   14 1
    21   13   25 1
    22   13   26 1
    23   14   15 1
    24   14   27 1
    25   14   28 1
    26   15   16 1
    27   15   29 1
    28   15   30 1
    29   16   17 1
    30   16   31 1
    31   16   32 1
    32   17   33 1
    33   17   34 1
    34   18   19 2
    35   18   20 1
@<TRIPOS>MOLECULE
ZINC36979644
   26    27     0     0     0
SMALL
USER_CHARGES

@<TRIPOS>ATOM
      1 C1         -0.0299    1.0031   -0.6498 C.ar      1 <0>        -0.1360
      2 C2          1.1194    1.7675   -0.6559 C.ar      1 <0>        -0.1321
      3 C3          2.2685    1.3024   -0.0309 C.ar      1 <0>         0.1866
      4 C4          2.2556    0.0511    0.6072 C.ar      1 <0>        -0.1497
      5 C5          1.0842   -0.7127    0.6055 C.ar      1 <0>        -0.0949
      6 C6         -0.0478   -0.2337   -0.0209 C.ar      1 <0>         0.0371
      7 F1         -1.1791   -0.9723   -0.0220 F         1 <0>        -0.1573
      8 C7          3.4672   -0.4530    1.2727 C.2       1 <0>         0.5248
      9 O1          3.4818   -1.5824    1.7430 O.co2     1 <0>        -0.6853
     10 O2          4.4600    0.2572    1.3557 O.co2     1 <0>        -0.6650
     11 N1          3.4278    2.0721   -0.0369 N.am      1 <0>        -0.6303
     12 C8          3.3470    3.4110   -0.1680 C.2       1 <0>         0.5910
     13 O3          2.2607    3.9562   -0.1786 O.2       1 <0>        -0.5595
     14 C9          4.5801    4.2169   -0.2989 C.ar      1 <0>        -0.1234
     15 C10         4.4994    5.6084   -0.4294 C.ar      1 <0>        -0.0411
     16 C11         5.6812    6.3189   -0.5485 C.ar      1 <0>        -0.2460
     17 C12         6.8786    5.6061   -0.5312 C.ar      1 <0>         0.3705
     18 O4          8.0595    6.2613   -0.6444 O.3       1 <0>        -0.6960
     19 N2          6.8616    4.2857   -0.4034 N.ar      1 <0>        -0.3459
     20 N3          5.7679    3.6238   -0.2877 N.ar      1 <0>        -0.1490
     21 H1         -0.9222    1.3719   -1.1338 H         1 <0>         0.1244
     22 H2          1.1248    2.7288   -1.1481 H         1 <0>         0.1506
     23 H3          1.0659   -1.6760    1.0935 H         1 <0>         0.1375
     24 H4          4.2940    1.6449    0.0533 H         1 <0>         0.4397
     25 H5          3.5441    6.1121   -0.4373 H         1 <0>         0.1277
     26 H6          5.6756    7.3939   -0.6520 H         1 <0>         0.1216
@<TRIPOS>BOND
     1    1    6 ar
     2    1    2 ar
     3    1   21 1
     4    2    3 ar
     5    2   22 1
     6    3    4 ar
     7    3   11 1
     8    4    5 ar
     9    4    8 1
    10    5    6 ar
    11    5   23 1
    12    6    7 1
    13    8    9 2
    14    8   10 1
    15   11   12 am
    16   11   24 1
    17   12   13 2
    18   12   14 1
    19   14   20 ar
    20   14   15 ar
    21   15   16 ar
    22   15   25 1
    23   16   17 ar
    24   16   26 1
    25   17   18 1
    26   17   19 ar
    27   19   20 ar
@<TRIPOS>MOLECULE
ZINC37795710
   27    28     0     0     0
SMALL
USER_CHARGES

@<TRIPOS>ATOM
      1 C1          0.0690    1.2328    0.6252 C.ar      1 <0>        -0.0446
      2 C2          1.2734    1.9443    0.6269 C.ar      1 <0>        -0.1572
      3 C3          2.4043    1.3973    0.0081 C.ar      1 <0>         0.1350
      4 C4          2.3259    0.1588   -0.6006 C.ar      1 <0>        -0.1916
      5 C5          1.1328   -0.5421   -0.6008 C.ar      1 <0>         0.0793
      6 C6          0.0027   -0.0050    0.0132 C.ar      1 <0>         0.0987
      7 N1         -1.2026   -0.7206    0.0097 N.am      1 <0>        -0.6680
      8 C7         -2.3751   -0.0662    0.1261 C.2       1 <0>         0.5424
      9 O1         -2.3948    1.1465    0.1330 O.2       1 <0>        -0.5060
     10 C8         -3.6618   -0.8414    0.2478 C.3       1 <0>        -0.1825
     11 H1         -3.7018   -1.7766   -0.3106 H         1 <0>         0.1256
     12 C9         -4.3945   -0.7880    1.5899 C.3       1 <0>        -0.1380
     13 C10        -4.9591   -0.0409    0.3790 C.3       1 <0>        -0.1637
     14 H2         -4.8819    1.0463    0.3773 H         1 <0>         0.1113
     15 C11        -6.1944   -0.6062   -0.2732 C.2       1 <0>         0.5206
     16 O2         -7.2937   -0.3772    0.2019 O.co2     1 <0>        -0.6933
     17 O3         -6.0947   -1.2924   -1.2760 O.co2     1 <0>        -0.6931
     18 F1          1.0631   -1.7517   -1.1984 F         1 <0>        -0.1408
     19 F2          3.5704    2.0794    0.0058 F         1 <0>        -0.1169
     20 C12         1.3516    3.2632    1.2761 C.2       1 <0>         0.5234
     21 O4          0.3621    3.7390    1.8156 O.co2     1 <0>        -0.6734
     22 O5          2.4062    3.8833    1.2762 O.co2     1 <0>        -0.6779
     23 H3         -0.8055    1.6474    1.1046 H         1 <0>         0.1703
     24 H4          3.1982   -0.2628   -1.0777 H         1 <0>         0.1414
     25 H5         -1.1929   -1.6867   -0.0766 H         1 <0>         0.4102
     26 H6         -4.9168   -1.6881    1.9142 H         1 <0>         0.0968
     27 H7         -3.9459   -0.1923    2.3848 H         1 <0>         0.0920
@<TRIPOS>BOND
     1    1    6 ar
     2    1    2 ar
     3    1   23 1
     4    2    3 ar
     5    2   20 1
     6    3    4 ar
     7    3   19 1
     8    4    5 ar
     9    4   24 1
    10    5    6 ar
    11    5   18 1
    12    6    7 1
    13    7    8 am
    14    7   25 1
    15    8    9 2
    16    8   10 1
    17   10   11 1
    18   10   13 1
    19   10   12 1
    20   12   13 1
    21   12   26 1
    22   12   27 1
    23   13   14 1
    24   13   15 1
    25   15   16 2
    26   15   17 1
    27   20   21 2
    28   20   22 1
@<TRIPOS>MOLECULE
ZINC41033986
   36    37     0     0     0
SMALL
USER_CHARGES

@<TRIPOS>ATOM
      1 C1         -0.2767    1.5221    0.0492 C.3       1 <0>        -0.1538
      2 C2         -0.2559   -0.0078    0.0407 C.3       1 <0>        -0.0870
      3 H1          0.0745   -0.3613   -0.9360 H         1 <0>         0.0539
      4 C3         -1.6623   -0.5385    0.3262 C.3       1 <0>        -0.1061
      5 C4         -2.1260   -0.0423    1.6972 C.3       1 <0>        -0.1235
      6 C5         -1.1628   -0.5452    2.7743 C.3       1 <0>        -0.1023
      7 C6          0.2436   -0.0145    2.4888 C.3       1 <0>         0.1106
      8 C7          0.7074   -0.5107    1.1178 C.3       1 <0>        -0.1058
      9 C8          1.1924   -0.5098    3.5496 C.2       1 <0>         0.5013
     10 O1          1.3563   -1.7073    3.7098 O.co2     1 <0>        -0.7122
     11 O2          1.7960    0.2869    4.2477 O.co2     1 <0>        -0.6693
     12 N1          0.2237    1.4504    2.4968 N.am      1 <0>        -0.6826
     13 C9          1.3619    2.1409    2.2870 C.2       1 <0>         0.5808
     14 O3          2.4042    1.5488    2.0912 O.2       1 <0>        -0.5201
     15 C10         1.3418    3.6268    2.2952 C.2       1 <0>         0.2092
     16 C11         2.5053    4.3370    2.0748 C.2       1 <0>        -0.3724
     17 C12         2.4485    5.7484    2.0899 C.2       1 <0>         0.5405
     18 O4          3.4528    6.4131    1.8994 O.2       1 <0>        -0.6033
     19 N2          1.2604    6.3468    2.3187 N.am      1 <0>        -0.6607
     20 H2          1.2004    7.3148    2.3327 H         1 <0>         0.3928
     21 C13         0.1487    5.5954    2.5290 C.2       1 <0>         0.6087
     22 O5         -1.0298    6.2116    2.7556 O.3       1 <0>        -0.6843
     23 N3          0.1932    4.2828    2.5109 N.2       1 <0>        -0.6106
     24 H3          0.7459    1.8992    0.0596 H         1 <0>         0.0500
     25 H4         -0.7881    1.8834   -0.8430 H         1 <0>         0.0299
     26 H5         -0.8026    1.8734    0.9369 H         1 <0>         0.0839
     27 H6         -2.3485   -0.1802   -0.4411 H         1 <0>         0.0503
     28 H7         -1.6475   -1.6284    0.3202 H         1 <0>         0.0549
     29 H8         -2.1408    1.0476    1.7032 H         1 <0>         0.0674
     30 H9         -3.1279   -0.4203    1.9006 H         1 <0>         0.0527
     31 H10        -1.4932   -0.1916    3.7510 H         1 <0>         0.0576
     32 H11        -1.1480   -1.6351    2.7683 H         1 <0>         0.0748
     33 H12         0.7221   -1.6006    1.1118 H         1 <0>         0.0630
     34 H13         1.7093   -0.1326    0.9144 H         1 <0>         0.0754
     35 H14        -0.6087    1.9233    2.6532 H         1 <0>         0.3986
     36 H15         3.4388    3.8244    1.8953 H         1 <0>         0.1379
@<TRIPOS>BOND
     1    1    2 1
     2    1   24 1
     3    1   25 1
     4    1   26 1
     5    2    3 1
     6    2    8 1
     7    2    4 1
     8    4    5 1
     9    4   27 1
    10    4   28 1
    11    5    6 1
    12    5   29 1
    13    5   30 1
    14    6    7 1
    15    6   31 1
    16    6   32 1
    17    7    8 1
    18    7    9 1
    19    7   12 1
    20    8   33 1
    21    8   34 1
    22    9   10 2
    23    9   11 1
    24   12   13 am
    25   12   35 1
    26   13   14 2
    27   13   15 1
    28   15   23 1
    29   15   16 2
    30   16   17 1
    31   16   36 1
    32   17   18 2
    33   17   19 am
    34   19   20 1
    35   19   21 1
    36   21   22 1
    37   21   23 2
@<TRIPOS>MOLECULE
ZINC12523690
   23    24     0     0     0
SMALL
USER_CHARGES

@<TRIPOS>ATOM
      1 C1         -0.0178    1.4608    0.0101 C.3       1 <0>         0.0964
      2 N1          0.0021   -0.0041    0.0020 N.am      1 <0>        -0.4982
      3 C2         -1.1867   -0.7123    0.0038 C.2       1 <0>         0.2234
      4 C3         -1.1414   -2.1253   -0.0046 C.2       1 <0>        -0.1638
      5 C4          0.0979   -2.7598   -0.0148 C.2       1 <0>         0.5481
      6 O1          0.1741   -4.1042   -0.0234 O.3       1 <0>        -0.6138
      7 N2          1.2346   -2.0044   -0.0164 N.am      1 <0>        -0.6401
      8 H1          2.0990   -2.4444   -0.0238 H         1 <0>         0.4225
      9 C5          1.1774   -0.6617   -0.0127 C.2       1 <0>         0.7072
     10 O2          2.2131   -0.0243   -0.0188 O.2       1 <0>        -0.5902
     11 N3         -2.4311   -2.5494   -0.0003 N.2       1 <0>        -0.4660
     12 C6         -3.2082   -1.4833    0.0100 C.2       1 <0>         0.1459
     13 N4         -2.4647   -0.3740    0.0125 N.2       1 <0>        -0.5223
     14 S1         -4.9698   -1.5181    0.0196 S.3       1 <0>        -0.0085
     15 C7         -5.3739   -3.2865    0.0127 C.3       1 <0>        -0.1548
     16 C8         -6.8709   -3.4597    0.0202 C.2       1 <0>         0.5153
     17 O3         -7.5978   -2.4809    0.0292 O.co2     1 <0>        -0.6812
     18 O4         -7.3551   -4.5787    0.0171 O.co2     1 <0>        -0.6970
     19 H2          1.0048    1.8381    0.0023 H         1 <0>         0.0865
     20 H3         -0.5450    1.8219   -0.8730 H         1 <0>         0.0670
     21 H4         -0.5280    1.8123    0.9069 H         1 <0>         0.0670
     22 H5         -4.9589   -3.7506   -0.8820 H         1 <0>         0.0783
     23 H6         -4.9490   -3.7597    0.8980 H         1 <0>         0.0782
@<TRIPOS>BOND
     1    1    2 1
     2    1   19 1
     3    1   20 1
     4    1   21 1
     5    2    9 am
     6    2    3 1
     7    3   13 2
     8    3    4 1
     9    4    5 2
    10    4   11 1
    11    5    6 1
    12    5    7 1
    13    7    8 1
    14    7    9 am
    15    9   10 2
    16   11   12 2
    17   12   13 1
    18   12   14 1
    19   14   15 1
    20   15   16 1
    21   15   22 1
    22   15   23 1
    23   16   17 2
    24   16   18 1
@<TRIPOS>MOLECULE
ZINC05501559
   26    25     0     0     0
SMALL
USER_CHARGES
3-(4-sulfinobutyldisulfanyl)propanoic acid
@<TRIPOS>ATOM
      1 C1         -1.4317    3.8138    3.1193 C.3       1 <0>        -0.1132
      2 C2         -0.8218    3.4593    1.7617 C.3       1 <0>        -0.0797
      3 C3         -0.7417    1.9380    1.6201 C.3       1 <0>        -0.5268
      4 S1         -0.0186    1.5178    0.0104 S.o       1 <0>         1.4465
      5 O1          1.3554    1.8803   -0.0008 O.2       1 <0>        -1.0117
      6 C4         -1.5118    5.3351    3.2609 C.3       1 <0>        -0.0942
      7 S2         -2.2349    5.7553    4.8706 S.3       1 <0>        -0.1679
      8 S3         -0.7840    5.2274    6.2191 S.3       1 <0>        -0.1737
      9 C5          0.3051    6.6768    6.2819 C.3       1 <0>        -0.0623
     10 C6         -0.4215    7.8310    6.9753 C.3       1 <0>        -0.1549
     11 C7          0.4833    9.0350    7.0275 C.2       1 <0>         0.4660
     12 O2          1.5951    8.9761    6.5582 O.co2     1 <0>        -0.6402
     13 H1         -2.4331    3.3891    3.1898 H         1 <0>         0.0669
     14 H2         -0.8078    3.4071    3.9152 H         1 <0>         0.0639
     15 H3          0.1796    3.8840    1.6912 H         1 <0>         0.0560
     16 H4         -1.4457    3.8660    0.9658 H         1 <0>         0.0627
     17 H5         -1.7431    1.5133    1.6905 H         1 <0>         0.0721
     18 H6         -0.1178    1.5314    2.4160 H         1 <0>         0.0470
     19 H7         -0.5104    5.7598    3.1905 H         1 <0>         0.0872
     20 H8         -2.1357    5.7417    2.4650 H         1 <0>         0.1113
     21 H9          1.2083    6.4287    6.8394 H         1 <0>         0.1122
     22 H10         0.5739    6.9734    5.2681 H         1 <0>         0.0888
     23 H11        -1.3247    8.0790    6.4178 H         1 <0>         0.0747
     24 H12        -0.6903    7.5343    7.9891 H         1 <0>         0.0739
     25 O3          0.0021   -0.0041    0.0020 O.3       1 <0>        -1.0309
     26 O4          0.0540   10.1730    7.5953 O.co2     1 <0>        -0.7737
@<TRIPOS>BOND
     1    1    2 1
     2    1    6 1
     3    1   13 1
     4    1   14 1
     5    2    3 1
     6    2   15 1
     7    2   16 1
     8    3    4 1
     9    3   17 1
    10    3   18 1
    11    4    5 2
    12    4   25 1
    13    6    7 1
    14    6   19 1
    15    6   20 1
    16    7    8 1
    17    8    9 1
    18    9   10 1
    19    9   21 1
    20    9   22 1
    21   10   11 1
    22   10   23 1
    23   10   24 1
    24   11   12 2
    25   11   26 1
@<TRIPOS>MOLECULE
ZINC16134054
   28    28     0     0     0
SMALL
USER_CHARGES
(1S,3R,5S)-4,4,5-trimethylcyclopentane-1,3-dicarboxylic acid
@<TRIPOS>ATOM
      1 C1          4.3341    4.6477   -1.2510 C.3       1 <0>        -0.1380
      2 C2          3.0748    4.9118   -0.4232 C.3       1 <0>        -0.0598
      3 H1          3.2393    5.7550    0.2477 H         1 <0>         0.0547
      4 C3          1.8807    5.2022   -1.3557 C.3       1 <0>        -0.1315
      5 H2          1.2112    5.9330   -0.9019 H         1 <0>         0.0572
      6 C4          1.1670    3.8336   -1.5006 C.3       1 <0>        -0.0871
      7 C5          1.2981    3.2296   -0.0804 C.3       1 <0>        -0.1252
      8 H3          0.5348    3.6399    0.5807 H         1 <0>         0.0586
      9 C6          2.7044    3.6576    0.3877 C.3       1 <0>        -0.0433
     10 C7          2.6818    3.9871    1.8816 C.3       1 <0>        -0.1285
     11 C8          3.7112    2.5387    0.1134 C.3       1 <0>        -0.1319
     12 C9          1.1949    1.7271   -0.1346 C.2       1 <0>         0.4789
     13 O1          1.4000    1.1446   -1.1731 O.co2     1 <0>        -0.6378
     14 C10         2.3651    5.6931   -2.6956 C.2       1 <0>         0.4786
     15 O2          2.5376    4.9102   -3.5995 O.co2     1 <0>        -0.6365
     16 H4          4.1460    3.8314   -1.9483 H         1 <0>         0.0650
     17 H5          4.5985    5.5471   -1.8072 H         1 <0>         0.0512
     18 H6          5.1550    4.3766   -0.5872 H         1 <0>         0.0371
     19 H7          1.6765    3.2092   -2.2345 H         1 <0>         0.0894
     20 H8          0.1189    3.9685   -1.7677 H         1 <0>         0.0389
     21 H9          2.3948    3.0993    2.4452 H         1 <0>         0.0578
     22 H10         3.6731    4.3129    2.1969 H         1 <0>         0.0393
     23 H11         1.9615    4.7838    2.0671 H         1 <0>         0.0445
     24 H12         3.6879    2.2805   -0.9454 H         1 <0>         0.0639
     25 H13         4.7119    2.8761    0.3831 H         1 <0>         0.0375
     26 H14         3.4510    1.6622    0.7069 H         1 <0>         0.0526
     27 O3          0.8751    1.0360    0.9707 O.co2     1 <0>        -0.7917
     28 O4          2.6048    7.0002   -2.8849 O.co2     1 <0>        -0.7938
@<TRIPOS>BOND
     1    1    2 1
     2    1   16 1
     3    1   17 1
     4    1   18 1
     5    2    3 1
     6    2    9 1
     7    2    4 1
     8    4    5 1
     9    4    6 1
    10    4   14 1
    11    6    7 1
    12    6   19 1
    13    6   20 1
    14    7    8 1
    15    7    9 1
    16    7   12 1
    17    9   10 1
    18    9   11 1
    19   10   21 1
    20   10   22 1
    21   10   23 1
    22   11   24 1
    23   11   25 1
    24   11   26 1
    25   12   13 2
    26   12   27 1
    27   14   15 2
    28   14   28 1
@<TRIPOS>MOLECULE
ZINC36154164
   27    27     0     0     0
SMALL
USER_CHARGES

@<TRIPOS>ATOM
      1 C1          0.7841   -1.3182   -0.0457 C.3       1 <0>        -0.1593
      2 C2          0.0021   -0.0041    0.0020 C.3       1 <0>         0.1080
      3 C3          0.3270    0.8281   -1.2401 C.3       1 <0>        -0.1574
      4 N1         -1.4341   -0.2914    0.0354 N.pl3     1 <0>        -0.4730
      5 C4         -2.0260   -0.9950   -0.9728 C.2       1 <0>         0.4552
      6 O1         -1.3021   -1.4406   -2.0209 O.3       1 <0>        -0.6036
      7 C5         -3.3879   -1.2419   -0.8957 C.2       1 <0>        -0.0442
      8 N2         -4.0763   -0.7946    0.1430 N.2       1 <0>        -0.1706
      9 N3         -3.5068   -0.1328    1.0866 N.2       1 <0>        -0.3502
     10 C6         -2.1959    0.1299    1.0665 C.2       1 <0>         0.4344
     11 S1         -1.4824    1.0094    2.3504 S.2       1 <0>        -0.7252
     12 C7         -4.0810   -2.0148   -1.9882 C.3       1 <0>        -0.0098
     13 C8         -4.1626   -3.4912   -1.5954 C.3       1 <0>        -0.1691
     14 C9         -4.8557   -4.2641   -2.6878 C.2       1 <0>         0.4971
     15 O2         -5.2480   -3.6874   -3.6879 O.co2     1 <0>        -0.7005
     16 O3         -5.0242   -5.4660   -2.5716 O.co2     1 <0>        -0.7159
     17 H1          1.8500   -1.1103    0.0473 H         1 <0>         0.0631
     18 H2          0.4661   -1.9603    0.7758 H         1 <0>         0.0507
     19 H3          0.5933   -1.8204   -0.9941 H         1 <0>         0.0816
     20 H4          0.2820    0.5531    0.8961 H         1 <0>         0.1323
     21 H5          0.1473    0.2314   -2.1344 H         1 <0>         0.0797
     22 H6         -0.3082    1.7137   -1.2605 H         1 <0>         0.0502
     23 H7          1.3733    1.1321   -1.2103 H         1 <0>         0.0635
     24 H8         -5.0872   -1.6204   -2.1301 H         1 <0>         0.0726
     25 H9         -3.5179   -1.9163   -2.9163 H         1 <0>         0.0813
     26 H10        -3.1565   -3.8857   -1.4535 H         1 <0>         0.0533
     27 H11        -4.7257   -3.5897   -0.6673 H         1 <0>         0.0559
@<TRIPOS>BOND
     1    1    2 1
     2    1   17 1
     3    1   18 1
     4    1   19 1
     5    2    3 1
     6    2    4 1
     7    2   20 1
     8    3   21 1
     9    3   22 1
    10    3   23 1
    11    4   10 1
    12    4    5 1
    13    5    6 1
    14    5    7 2
    15    7    8 1
    16    7   12 1
    17    8    9 2
    18    9   10 1
    19   10   11 2
    20   12   13 1
    21   12   24 1
    22   12   25 1
    23   13   14 1
    24   13   26 1
    25   13   27 1
    26   14   15 2
    27   14   16 1
@<TRIPOS>MOLECULE
ZINC44122600
   26    28     0     0     0
SMALL
USER_CHARGES

@<TRIPOS>ATOM
      1 C1         -0.1489    1.4938    0.3564 C.2       1 <0>        -0.1381
      2 C2          1.1554    1.3770    0.1052 C.2       1 <0>        -0.1799
      3 C3          1.3696   -0.0468    0.4225 C.3       1 <0>        -0.0942
      4 H1          1.6932   -0.2279    1.4475 H         1 <0>         0.1046
      5 C4         -0.1589    0.0906    0.2293 C.3       1 <0>        -0.1700
      6 H2         -0.1388    0.0397   -0.8594 H         1 <0>         0.0885
      7 C5         -0.8286   -1.2317    0.4816 C.3       1 <0>        -0.0064
      8 H3         -1.8341   -1.1835    0.8998 H         1 <0>         0.0749
      9 C6         -0.7077   -1.6799   -1.0206 C.2       1 <0>        -0.1395
     10 C7          0.5298   -1.5564   -1.4652 C.2       1 <0>        -0.0978
     11 C8          1.7093   -1.2050   -0.5358 C.3       1 <0>        -0.0313
     12 H4          2.6880   -1.1316   -1.0100 H         1 <0>         0.0815
     13 C9          1.5119   -2.3778    0.5069 C.3       1 <0>        -0.1232
     14 H5          2.2907   -2.3290    1.2679 H         1 <0>         0.0405
     15 C10         0.1448   -2.1913    1.2043 C.3       1 <0>        -0.1225
     16 H6          0.2990   -1.8202    2.2175 H         1 <0>         0.0329
     17 C11        -0.5130   -3.5437    1.3013 C.2       1 <0>         0.5051
     18 O1         -1.2193   -3.9447    0.3920 O.co2     1 <0>        -0.6767
     19 O2         -0.3390   -4.2368    2.2892 O.co2     1 <0>        -0.7206
     20 C12         1.5757   -3.7059   -0.2024 C.2       1 <0>         0.5103
     21 O3          2.1526   -4.6467    0.3158 O.co2     1 <0>        -0.7132
     22 O4          1.0504   -3.8396   -1.2946 O.co2     1 <0>        -0.6723
     23 H7         -0.8561    2.2835    0.5628 H         1 <0>         0.1537
     24 H8          1.8604    2.1201   -0.2371 H         1 <0>         0.1050
     25 H9         -1.5333   -2.0433   -1.6145 H         1 <0>         0.1086
     26 H10         0.7266   -1.7067   -2.5164 H         1 <0>         0.0802
@<TRIPOS>BOND
     1    1    5 1
     2    1    2 2
     3    1   23 1
     4    2    3 1
     5    2   24 1
     6    3    4 1
     7    3   11 1
     8    3    5 1
     9    5    6 1
    10    5    7 1
    11    7    8 1
    12    7   15 1
    13    7    9 1
    14    9   10 2
    15    9   25 1
    16   10   11 1
    17   10   26 1
    18   11   12 1
    19   11   13 1
    20   13   14 1
    21   13   15 1
    22   13   20 1
    23   15   16 1
    24   15   17 1
    25   17   18 2
    26   17   19 1
    27   20   21 2
    28   20   22 1
@<TRIPOS>MOLECULE
ZINC13298722
   30    32     0     0     0
SMALL
USER_CHARGES

@<TRIPOS>ATOM
      1 C1         -0.0184    1.5028    0.0103 C.3       1 <0>        -0.1758
      2 C2          0.0021   -0.0041    0.0020 C.2       1 <0>         0.4018
      3 O1          1.0623   -0.5971   -0.0113 O.2       1 <0>        -0.5404
      4 C3         -1.2085   -0.7251    0.0097 C.2       1 <0>        -0.3684
      5 C4         -1.3207   -2.1057    0.0089 C.2       1 <0>         0.3394
      6 C5         -2.7569   -2.3857    0.0192 C.ar      1 <0>        -0.3278
      7 C6         -3.3950   -1.1342    0.0254 C.ar      1 <0>         0.1471
      8 O2         -2.4442   -0.1803    0.0249 O.3       1 <0>        -0.2149
      9 C7         -4.7908   -1.0700    0.0358 C.ar      1 <0>        -0.2251
     10 C8         -5.5425   -2.2337    0.0400 C.ar      1 <0>        -0.0086
     11 C9         -4.9058   -3.4954    0.0338 C.ar      1 <0>        -0.3442
     12 C10        -3.5136   -3.5722    0.0227 C.ar      1 <0>         0.3644
     13 O3         -2.8960   -4.7761    0.0168 O.3       1 <0>        -0.6511
     14 C11        -5.7226   -4.7201    0.0379 C.2       1 <0>         0.3964
     15 O4         -5.1850   -5.8116    0.0330 O.2       1 <0>        -0.4519
     16 C12        -7.1922   -4.6211    0.0483 C.2       1 <0>         0.1939
     17 O5         -7.9404   -5.7529    0.0520 O.3       1 <0>        -0.6950
     18 C13        -7.8054   -3.4133    0.0548 C.2       1 <0>        -0.2651
     19 C14        -7.0203   -2.1701    0.0505 C.2       1 <0>         0.4491
     20 O6         -7.5843   -1.0926    0.0556 O.2       1 <0>        -0.5308
     21 O7         -9.1613   -3.3499    0.0648 O.3       1 <0>        -0.3320
     22 C15        -9.8688   -4.5915    0.0680 C.3       1 <0>         0.0775
     23 O8         -0.3113   -3.0084   -0.0003 O.3       1 <0>        -0.6402
     24 H1          1.0042    1.8801    0.0026 H         1 <0>         0.0509
     25 H2         -0.5455    1.8639   -0.8728 H         1 <0>         0.0655
     26 H3         -0.5286    1.8543    0.9071 H         1 <0>         0.0654
     27 H4         -5.2854   -0.1099    0.0410 H         1 <0>         0.1088
     28 H5         -9.6088   -5.1601   -0.8248 H         1 <0>         0.0449
     29 H6         -9.5958   -5.1630    0.9551 H         1 <0>         0.0449
     30 H7        -10.9415   -4.3984    0.0762 H         1 <0>         0.0213
@<TRIPOS>BOND
     1    1    2 1
     2    1   24 1
     3    1   25 1
     4    1   26 1
     5    2    3 2
     6    2    4 1
     7    4    8 1
     8    4    5 2
     9    5    6 1
    10    5   23 1
    11    6   12 ar
    12    6    7 ar
    13    7    8 1
    14    7    9 ar
    15    9   10 ar
    16    9   27 1
    17   10   19 1
    18   10   11 ar
    19   11   12 ar
    20   11   14 1
    21   12   13 1
    22   14   15 2
    23   14   16 1
    24   16   17 1
    25   16   18 2
    26   18   19 1
    27   18   21 1
    28   19   20 2
    29   21   22 1
    30   22   28 1
    31   22   29 1
    32   22   30 1
@<TRIPOS>MOLECULE
ZINC01730130
   17    17     0     0     0
SMALL
USER_CHARGES
3-ethylidenecyclopropane-1,2-dicarboxylic acid
@<TRIPOS>ATOM
      1 C1          3.3708   -0.4983   -0.0328 C.3       1 <0>        -0.0982
      2 C2          2.5997    0.7964   -0.0185 C.2       1 <0>        -0.1573
      3 C3          1.2899    0.7785   -0.0061 C.2       1 <0>        -0.1395
      4 C4         -0.0187    1.5258    0.0104 C.3       1 <0>        -0.1315
      5 H1         -0.3224    2.0309   -0.9065 H         1 <0>         0.1117
      6 C5          0.0021   -0.0041    0.0020 C.3       1 <0>        -0.1298
      7 H2         -0.2703   -0.5170    0.9244 H         1 <0>         0.1109
      8 C6         -0.4008   -0.6996   -1.2727 C.2       1 <0>         0.4978
      9 O1         -0.7243   -0.0503   -2.2390 O.co2     1 <0>        -0.6379
     10 C7         -0.4142    2.2104    1.2933 C.2       1 <0>         0.4973
     11 O2         -0.7000    1.5528    2.2658 O.co2     1 <0>        -0.6374
     12 H3          4.4396   -0.2846   -0.0419 H         1 <0>         0.0463
     13 H4          3.1238   -1.0782    0.8565 H         1 <0>         0.0549
     14 H5          3.1068   -1.0687   -0.9234 H         1 <0>         0.0588
     15 H6          3.1270    1.7389   -0.0185 H         1 <0>         0.1081
     16 O3         -0.4004   -2.0405   -1.3347 O.co2     1 <0>        -0.7768
     17 O4         -0.4490    3.5508    1.3557 O.co2     1 <0>        -0.7775
@<TRIPOS>BOND
     1    1    2 1
     2    1   12 1
     3    1   13 1
     4    1   14 1
     5    2    3 2
     6    2   15 1
     7    3    6 1
     8    3    4 1
     9    4    5 1
    10    4    6 1
    11    4   10 1
    12    6    7 1
    13    6    8 1
    14    8    9 2
    15    8   16 1
    16   10   11 2
    17   10   17 1
@<TRIPOS>MOLECULE
ZINC17378858
   26    25     0     0     0
SMALL
USER_CHARGES
(2Z,6E)-2,6-dimethylocta-2,6-dienedioic acid
@<TRIPOS>ATOM
      1 C1         -0.7643    3.2245   -0.0867 C.3       1 <0>        -0.0957
      2 C2         -0.9881    1.7402    0.0467 C.2       1 <0>        -0.0958
      3 C3          0.0175    0.8941   -0.1635 C.2       1 <0>        -0.2029
      4 C4          1.2979    1.3902   -0.6868 C.2       1 <0>         0.4821
      5 O1          1.4019    2.5481   -1.0411 O.co2     1 <0>        -0.6366
      6 C5         -2.3505    1.2139    0.4180 C.3       1 <0>        -0.0842
      7 C6         -2.5042    1.2255    1.9403 C.3       1 <0>        -0.0632
      8 C7         -3.8666    0.6993    2.3116 C.2       1 <0>        -0.1344
      9 C8         -4.1815    0.5120    3.5910 C.2       1 <0>        -0.1787
     10 C9         -5.4905   -0.1388    3.9573 C.3       1 <0>        -0.0919
     11 C10        -3.2529    0.9397    4.6465 C.2       1 <0>         0.4815
     12 O2         -2.2448    1.5536    4.3568 O.co2     1 <0>        -0.6201
     13 H1         -0.8635    3.5143   -1.1328 H         1 <0>         0.0566
     14 H2         -1.5038    3.7585    0.5100 H         1 <0>         0.0345
     15 H3          0.2363    3.4743    0.2662 H         1 <0>         0.0831
     16 H4         -0.1090   -0.1577    0.0464 H         1 <0>         0.0974
     17 H5         -3.1182    1.8452   -0.0295 H         1 <0>         0.0578
     18 H6         -2.4587    0.1938    0.0497 H         1 <0>         0.0560
     19 H7         -1.7365    0.5943    2.3878 H         1 <0>         0.0762
     20 H8         -2.3959    2.2457    2.3086 H         1 <0>         0.0839
     21 H9         -4.5874    0.4741    1.5395 H         1 <0>         0.0963
     22 H10        -5.3540   -1.2183    4.0218 H         1 <0>         0.0531
     23 H11        -5.8290    0.2428    4.9206 H         1 <0>         0.0639
     24 H12        -6.2352    0.0883    3.1945 H         1 <0>         0.0402
     25 O3          2.3571    0.5610   -0.7738 O.co2     1 <0>        -0.7812
     26 O4         -3.5193    0.6513    5.9361 O.co2     1 <0>        -0.7777
@<TRIPOS>BOND
     1    1    2 1
     2    1   13 1
     3    1   14 1
     4    1   15 1
     5    2    3 2
     6    2    6 1
     7    3    4 1
     8    3   16 1
     9    4    5 2
    10    4   25 1
    11    6    7 1
    12    6   17 1
    13    6   18 1
    14    7    8 1
    15    7   19 1
    16    7   20 1
    17    8    9 2
    18    8   21 1
    19    9   10 1
    20    9   11 1
    21   10   22 1
    22   10   23 1
    23   10   24 1
    24   11   12 2
    25   11   26 1
@<TRIPOS>MOLECULE
ZINC37464547
   28    28     0     0     0
SMALL
USER_CHARGES

@<TRIPOS>ATOM
      1 C1         -0.0169    1.3937    0.0097 C.ar      1 <0>         0.0067
      2 C2          1.1668    2.0966    0.0022 C.ar      1 <0>        -0.2534
      3 C3          2.3812    1.4173   -0.0135 C.ar      1 <0>         0.3548
      4 C4          2.4037    0.0255   -0.0212 C.ar      1 <0>        -0.2693
      5 C5          1.2241   -0.6835   -0.0133 C.ar      1 <0>         0.0282
      6 C6          0.0021   -0.0041    0.0020 C.ar      1 <0>        -0.1777
      7 C7         -1.2272   -0.7385    0.0103 C.1       1 <0>         0.2940
      8 N1         -2.2024   -1.3211    0.0168 N.1       1 <0>        -0.4902
      9 C8          3.7213   -0.7058   -0.0387 C.3       1 <0>         0.5331
     10 F1          3.4888   -2.0854   -0.0437 F         1 <0>        -0.2042
     11 F2          4.4373   -0.3494   -1.1866 F         1 <0>        -0.1753
     12 F3          4.4608   -0.3616    1.0978 F         1 <0>        -0.1752
     13 N2          3.5761    2.1311   -0.0220 N.2       1 <0>        -1.0696
     14 S1          3.5515    3.7869   -0.0134 S.o2      1 <0>         2.5308
     15 O1          2.9308    4.1467   -1.2401 O.2       1 <0>        -1.0260
     16 O2          2.9558    4.1342    1.2290 O.2       1 <0>        -1.0260
     17 C9          5.2973    4.2792   -0.0286 C.3       1 <0>        -0.5457
     18 C10         5.3968    5.8059   -0.0220 C.3       1 <0>        -0.1774
     19 C11         6.8472    6.2149   -0.0346 C.2       1 <0>         0.5022
     20 O3          7.7204    5.3641   -0.0477 O.co2     1 <0>        -0.6914
     21 O4          7.1474    7.3965   -0.0317 O.co2     1 <0>        -0.7093
     22 H1         -0.9590    1.9215    0.0260 H         1 <0>         0.1170
     23 H2          1.1529    3.1765    0.0081 H         1 <0>         0.1209
     24 H3          1.2423   -1.7633   -0.0196 H         1 <0>         0.1257
     25 H4          5.7954    3.8787    0.8543 H         1 <0>         0.1206
     26 H5          5.7774    3.8877   -0.9255 H         1 <0>         0.1206
     27 H6          4.8987    6.2063   -0.9049 H         1 <0>         0.0681
     28 H7          4.9167    6.1974    0.8749 H         1 <0>         0.0680
@<TRIPOS>BOND
     1    1    6 ar
     2    1    2 ar
     3    1   22 1
     4    2    3 ar
     5    2   23 1
     6    3    4 ar
     7    3   13 1
     8    4    5 ar
     9    4    9 1
    10    5    6 ar
    11    5   24 1
    12    6    7 1
    13    7    8 3
    14    9   10 1
    15    9   11 1
    16    9   12 1
    17   13   14 1
    18   14   15 2
    19   14   16 2
    20   14   17 1
    21   17   18 1
    22   17   25 1
    23   17   26 1
    24   18   19 1
    25   18   27 1
    26   18   28 1
    27   19   20 2
    28   19   21 1
@<TRIPOS>MOLECULE
ZINC13452533
   32    33     0     0     0
SMALL
USER_CHARGES

@<TRIPOS>ATOM
      1 C1         -0.0169    1.3919    0.0097 C.ar      1 <0>        -0.0788
      2 C2          1.1698    2.0959    0.0021 C.ar      1 <0>        -0.0745
      3 C3          2.3776    1.4224   -0.0135 C.ar      1 <0>        -0.0621
      4 C4          2.4051    0.0367   -0.0216 C.ar      1 <0>         0.1185
      5 C5          1.2238   -0.6798   -0.0137 C.ar      1 <0>        -0.1074
      6 C6          0.0021   -0.0041    0.0020 C.ar      1 <0>        -0.0090
      7 C7         -1.2264   -0.7398    0.0103 C.1       1 <0>         0.2632
      8 N1         -2.2010   -1.3235    0.0168 N.1       1 <0>        -0.4196
      9 F1          3.5887   -0.6144   -0.0378 F         1 <0>        -0.1204
     10 C8          3.6694    2.1985   -0.0221 C.3       1 <0>        -0.0764
     11 S1          4.2047    2.5007    1.6845 S.3       1 <0>        -0.0330
     12 C9          5.7065    3.4049    1.5065 C.ar      1 <0>         0.2615
     13 N2          6.3715    3.7921    2.5882 N.ar      1 <0>        -0.5782
     14 C10         7.5034    4.4736    2.4478 C.ar      1 <0>         0.4212
     15 O1          8.2036    4.8815    3.5341 O.3       1 <0>        -0.6591
     16 C11         7.9570    4.7607    1.1598 C.ar      1 <0>        -0.0377
     17 N3          7.2528    4.3495    0.1221 N.ar      1 <0>        -0.2051
     18 N4          6.1629    3.6864    0.2920 N.ar      1 <0>        -0.4052
     19 C12         9.2357    5.5318    0.9561 C.3       1 <0>        -0.0106
     20 C13        10.4117    4.5565    0.8733 C.3       1 <0>        -0.1656
     21 C14        11.6904    5.3275    0.6696 C.2       1 <0>         0.4978
     22 O2         11.6636    6.5443    0.5973 O.co2     1 <0>        -0.7015
     23 O3         12.7517    4.7345    0.5771 O.co2     1 <0>        -0.7188
     24 H1         -0.9588    1.9199    0.0260 H         1 <0>         0.1408
     25 H2          1.1554    3.1758    0.0081 H         1 <0>         0.1504
     26 H3          1.2454   -1.7595   -0.0201 H         1 <0>         0.1458
     27 H4          4.4340    1.6255   -0.5467 H         1 <0>         0.1080
     28 H5          3.5175    3.1512   -0.5294 H         1 <0>         0.1108
     29 H6          9.1718    6.1033    0.0301 H         1 <0>         0.0619
     30 H7          9.3867    6.2128    1.7936 H         1 <0>         0.0771
     31 H8         10.4756    3.9850    1.7993 H         1 <0>         0.0562
     32 H9         10.2607    3.8755    0.0357 H         1 <0>         0.0501
@<TRIPOS>BOND
     1    1    6 ar
     2    1    2 ar
     3    1   24 1
     4    2    3 ar
     5    2   25 1
     6    3    4 ar
     7    3   10 1
     8    4    5 ar
     9    4    9 1
    10    5    6 ar
    11    5   26 1
    12    6    7 1
    13    7    8 3
    14   10   11 1
    15   10   27 1
    16   10   28 1
    17   11   12 1
    18   12   13 ar
    19   12   18 ar
    20   13   14 ar
    21   14   15 1
    22   14   16 ar
    23   16   17 ar
    24   16   19 1
    25   17   18 ar
    26   19   20 1
    27   19   29 1
    28   19   30 1
    29   20   21 1
    30   20   31 1
    31   20   32 1
    32   21   22 2
    33   21   23 1
@<TRIPOS>MOLECULE
ZINC61564251
   29    30     0     0     0
SMALL
USER_CHARGES

@<TRIPOS>ATOM
      1 C1         -0.0178    1.4608    0.0101 C.3       1 <0>         0.0757
      2 N1          0.0021   -0.0041    0.0020 N.pl3     1 <0>        -0.4561
      3 C2          0.0082   -0.7923   -1.1104 C.2       1 <0>        -0.0458
      4 C3          0.0273   -2.0811   -0.7139 C.2       1 <0>        -0.1089
      5 C4          0.0332   -2.0887    0.6950 C.2       1 <0>        -0.6630
      6 C5          0.0234   -0.8043    1.1057 C.2       1 <0>         0.0979
      7 S1          0.0568   -3.5145    1.7301 S.o2      1 <0>         2.5967
      8 O1         -0.4948   -3.1191    2.9785 O.2       1 <0>        -1.0501
      9 O2         -0.4822   -4.5822    0.9629 O.2       1 <0>        -1.0439
     10 N2          1.6452   -3.8888    2.0117 N.2       1 <0>        -0.9898
     11 C6          1.9710   -4.9800    2.8059 C.ar      1 <0>         0.3212
     12 C7          0.9677   -5.7629    3.3608 C.ar      1 <0>        -0.3044
     13 C8          1.2936   -6.8488    4.1512 C.ar      1 <0>         0.1126
     14 C9          2.6260   -7.1660    4.3969 C.ar      1 <0>        -0.0786
     15 C10         3.6339   -6.4003    3.8550 C.ar      1 <0>        -0.0554
     16 C11         3.3180   -5.3007    3.0470 C.ar      1 <0>        -0.1808
     17 C12         4.3884   -4.4834    2.4604 C.2       1 <0>         0.5314
     18 O3          5.5601   -4.7657    2.6727 O.co2     1 <0>        -0.7343
     19 O4          4.1084   -3.5201    1.7594 O.co2     1 <0>        -0.6456
     20 F1          2.9322   -8.2300    5.1711 F         1 <0>        -0.1663
     21 F2          0.3128   -7.6066    4.6887 F         1 <0>        -0.1583
     22 H1          1.0048    1.8381    0.0023 H         1 <0>         0.0709
     23 H2         -0.5450    1.8219   -0.8730 H         1 <0>         0.0771
     24 H3         -0.5280    1.8123    0.9069 H         1 <0>         0.0799
     25 H4         -0.0011   -0.4446   -2.1329 H         1 <0>         0.1607
     26 H5          0.0364   -2.9480   -1.3579 H         1 <0>         0.1436
     27 H6          0.0285   -0.4676    2.1319 H         1 <0>         0.1736
     28 H7         -0.0688   -5.5228    3.1749 H         1 <0>         0.1104
     29 H8          4.6666   -6.6501    4.0488 H         1 <0>         0.1297
@<TRIPOS>BOND
     1    1    2 1
     2    1   22 1
     3    1   23 1
     4    1   24 1
     5    2    6 1
     6    2    3 1
     7    3    4 2
     8    3   25 1
     9    4    5 1
    10    4   26 1
    11    5    6 2
    12    5    7 1
    13    6   27 1
    14    7    8 2
    15    7    9 2
    16    7   10 1
    17   10   11 1
    18   11   16 ar
    19   11   12 ar
    20   12   13 ar
    21   12   28 1
    22   13   14 ar
    23   13   21 1
    24   14   15 ar
    25   14   20 1
    26   15   16 ar
    27   15   29 1
    28   16   17 1
    29   17   18 2
    30   17   19 1
@<TRIPOS>MOLECULE
ZINC06524391
   36    37     0     0     0
SMALL
USER_CHARGES
3,4-dihydroxy-5-(3,4,5-trihydroxybenzoyl)oxy-cyclohexene-1-carboxylic acid
@<TRIPOS>ATOM
      1 C1         -1.2540    3.4149    0.0315 C.ar      1 <0>        -0.0775
      2 C2         -0.0540    4.1314    0.0238 C.ar      1 <0>        -0.0914
      3 C3          1.1649    3.4479    0.0090 C.ar      1 <0>        -0.0744
      4 C4          1.1807    2.0659    0.0019 C.ar      1 <0>         0.0857
      5 C5         -0.0164    1.3546    0.0095 C.ar      1 <0>         0.0866
      6 C6         -1.2323    2.0331    0.0189 C.ar      1 <0>         0.0831
      7 O1         -2.3997    1.3352    0.0211 O.3       1 <0>        -0.4811
      8 O2          0.0021   -0.0041    0.0020 O.3       1 <0>        -0.4799
      9 O3          2.3665    1.4001   -0.0121 O.3       1 <0>        -0.4849
     10 C7         -0.0740    5.6060    0.0319 C.2       1 <0>         0.5081
     11 O4          0.9699    6.2278    0.0257 O.2       1 <0>        -0.4926
     12 O5         -1.2500    6.2638    0.0463 O.3       1 <0>        -0.3363
     13 C8         -1.1937    7.7147    0.0535 C.3       1 <0>         0.1044
     14 H1         -0.2958    8.0489   -0.4662 H         1 <0>         0.1028
     15 C9         -1.1703    8.2210    1.4972 C.3       1 <0>        -0.0869
     16 C10        -1.3754    9.7085    1.5256 C.2       1 <0>        -0.1032
     17 C11        -1.8569   10.4016    0.5153 C.2       1 <0>        -0.2022
     18 C12        -2.2588    9.7943   -0.7972 C.3       1 <0>         0.1155
     19 H2         -3.1989   10.2365   -1.1271 H         1 <0>         0.0694
     20 C13        -2.4351    8.2820   -0.6458 C.3       1 <0>         0.1205
     21 H3         -3.3206    8.0749   -0.0449 H         1 <0>         0.0808
     22 O6         -2.5776    7.6801   -1.9340 O.3       1 <0>        -0.5467
     23 O7         -1.2446   10.0581   -1.7687 O.3       1 <0>        -0.5508
     24 C14        -1.0124   10.4327    2.7516 C.2       1 <0>         0.4799
     25 O8         -1.1598   11.6376    2.8119 O.co2     1 <0>        -0.6307
     26 H4         -2.1973    3.9406    0.0429 H         1 <0>         0.1551
     27 H5          2.0937    3.9990    0.0034 H         1 <0>         0.1538
     28 H6         -2.7329    1.1289    0.9051 H         1 <0>         0.3909
     29 H7          0.0158   -0.4021    0.8832 H         1 <0>         0.3935
     30 H8          2.7014    1.2117   -0.8995 H         1 <0>         0.3959
     31 H9         -1.9675    7.7380    2.0624 H         1 <0>         0.0868
     32 H10        -0.2096    7.9766    1.9504 H         1 <0>         0.0968
     33 H11        -1.9695   11.4687    0.6380 H         1 <0>         0.1267
     34 H12        -3.3446    7.9941   -2.4321 H         1 <0>         0.3751
     35 H13        -1.0779   10.9989   -1.9177 H         1 <0>         0.3787
     36 O9         -0.5159    9.7607    3.8094 O.co2     1 <0>        -0.7517
@<TRIPOS>BOND
     1    1    6 ar
     2    1    2 ar
     3    1   26 1
     4    2    3 ar
     5    2   10 1
     6    3    4 ar
     7    3   27 1
     8    4    5 ar
     9    4    9 1
    10    5    6 ar
    11    5    8 1
    12    6    7 1
    13    7   28 1
    14    8   29 1
    15    9   30 1
    16   10   11 2
    17   10   12 1
    18   12   13 1
    19   13   14 1
    20   13   20 1
    21   13   15 1
    22   15   16 1
    23   15   31 1
    24   15   32 1
    25   16   17 2
    26   16   24 1
    27   17   18 1
    28   17   33 1
    29   18   19 1
    30   18   20 1
    31   18   23 1
    32   20   21 1
    33   20   22 1
    34   22   34 1
    35   23   35 1
    36   24   25 2
    37   24   36 1
@<TRIPOS>MOLECULE
ZINC32073822
   43    44     0     0     0
SMALL
USER_CHARGES
(2R)-2-[[2-(6-fluoroindol-1-yl)acetyl]amino]-5-ureido-pentanoic acid
@<TRIPOS>ATOM
      1 C1          0.3770   -5.2701   -1.6543 C.ar      1 <0>        -0.0416
      2 C2          0.2987   -4.9558   -2.9818 C.ar      1 <0>        -0.1832
      3 C3          0.4814   -3.6458   -3.4086 C.ar      1 <0>         0.1115
      4 C4          0.7439   -2.6410   -2.5000 C.ar      1 <0>        -0.1591
      5 C5          0.8276   -2.9405   -1.1444 C.ar      1 <0>         0.1345
      6 C6          0.6421   -4.2686   -0.7188 C.ar      1 <0>        -0.1166
      7 C7          0.7899   -4.2510    0.7390 C.2       1 <0>        -0.2035
      8 C8          1.0486   -2.9822    1.0919 C.2       1 <0>         0.0714
      9 N1          1.0691   -2.1835   -0.0199 N.pl3     1 <0>        -0.4604
     10 C9          1.3172   -0.7397   -0.0145 C.3       1 <0>         0.0879
     11 C10         0.0021   -0.0041    0.0020 C.2       1 <0>         0.4945
     12 O1         -1.0399   -0.6247    0.0086 O.2       1 <0>        -0.5280
     13 N2         -0.0162    1.3436    0.0094 N.am      1 <0>        -0.7063
     14 C11        -1.2947    2.0587    0.0194 C.3       1 <0>         0.1086
     15 H1         -2.0100    1.4670   -0.5707 H         1 <0>         0.0877
     16 C12        -1.1045    3.4520   -0.5836 C.3       1 <0>        -0.1038
     17 C13        -0.7253    3.3212   -2.0601 C.3       1 <0>        -0.1260
     18 C14        -0.5350    4.7145   -2.6631 C.3       1 <0>         0.1387
     19 N3         -0.1719    4.5893   -4.0768 N.am      1 <0>        -0.7559
     20 C15         0.0467    5.6943   -4.8168 C.2       1 <0>         0.7040
     21 O2         -0.0573    6.7951   -4.3110 O.2       1 <0>        -0.6063
     22 N4          0.3808    5.5792   -6.1174 N.am      1 <0>        -0.8954
     23 C16        -1.7869    2.1882    1.4379 C.2       1 <0>         0.4580
     24 O3         -1.1364    1.7301    2.3472 O.co2     1 <0>        -0.6308
     25 O4         -2.9479    2.8124    1.6911 O.co2     1 <0>        -0.7642
     26 F1          0.4009   -3.3534   -4.7251 F         1 <0>        -0.1427
     27 H2          0.2346   -6.2904   -1.3300 H         1 <0>         0.1309
     28 H3          0.0935   -5.7313   -3.7049 H         1 <0>         0.1319
     29 H4          0.8844   -1.6257   -2.8404 H         1 <0>         0.1270
     30 H5          0.7108   -5.0990    1.4030 H         1 <0>         0.1493
     31 H6          1.2133   -2.6413    2.1033 H         1 <0>         0.1707
     32 H7          1.8989   -0.4710    0.8796 H         1 <0>         0.1224
     33 H8          1.8818   -0.4613   -0.9166 H         1 <0>         0.1109
     34 H9          0.9288    1.9065    0.0079 H         1 <0>         0.4085
     35 H10        -2.0417    4.0210   -0.4947 H         1 <0>         0.0913
     36 H11        -0.3032    3.9786   -0.0445 H         1 <0>         0.0666
     37 H12         0.2118    2.7521   -2.1489 H         1 <0>         0.0650
     38 H13        -1.5266    2.7946   -2.5992 H         1 <0>         0.0678
     39 H14        -1.4721    5.2836   -2.5742 H         1 <0>         0.0656
     40 H15         0.2663    5.2411   -2.1240 H         1 <0>         0.0636
     41 H16        -0.0777    3.5934   -4.5343 H         1 <0>         0.4121
     42 H17         0.5592    6.4811   -6.7213 H         1 <0>         0.4325
     43 H18         0.4751    4.5833   -6.5750 H         1 <0>         0.4109
@<TRIPOS>BOND
     1    1    6 ar
     2    1    2 ar
     3    1   27 1
     4    2    3 ar
     5    2   28 1
     6    3    4 ar
     7    3   26 1
     8    4    5 ar
     9    4   29 1
    10    5    9 1
    11    5    6 ar
    12    6    7 1
    13    7    8 2
    14    7   30 1
    15    8    9 1
    16    8   31 1
    17    9   10 1
    18   10   11 1
    19   10   32 1
    20   10   33 1
    21   11   12 2
    22   11   13 am
    23   13   14 1
    24   13   34 1
    25   14   15 1
    26   14   16 1
    27   14   23 1
    28   16   17 1
    29   16   35 1
    30   16   36 1
    31   17   18 1
    32   17   37 1
    33   17   38 1
    34   18   19 1
    35   18   39 1
    36   18   40 1
    37   19   20 am
    38   19   41 1
    39   20   21 2
    40   20   22 am
    41   22   42 1
    42   22   43 1
    43   23   24 2
    44   23   25 1
@<TRIPOS>MOLECULE
ZINC37453144
   40    39     0     0     0
SMALL
USER_CHARGES

@<TRIPOS>ATOM
      1 C1         -0.0187    1.5258    0.0104 C.3       1 <0>        -0.1255
      2 C2          0.0021   -0.0041    0.0020 C.3       1 <0>        -0.0850
      3 C3          0.7421   -0.5109    1.2415 C.3       1 <0>        -0.1436
      4 C4         -1.4333   -0.5336    0.0129 C.3       1 <0>        -0.1416
      5 C5          0.7074   -0.4901   -1.2379 C.2       1 <0>         0.5231
      6 O1          1.1500    0.3085   -2.0362 O.2       1 <0>        -0.5464
      7 N1          0.8465   -1.8122   -1.4596 N.am      1 <0>        -0.7110
      8 C6          1.5322   -2.2846   -2.6649 C.3       1 <0>         0.1007
      9 C7          1.5527   -3.7915   -2.6732 C.2       1 <0>         0.5110
     10 O2          1.0445   -4.4098   -1.7620 O.2       1 <0>        -0.5463
     11 N2          2.1357   -4.4519   -3.6932 N.am      1 <0>        -0.6895
     12 C8          2.1555   -5.9168   -3.7012 C.3       1 <0>         0.0750
     13 H1          1.2333   -6.2951   -3.2601 H         1 <0>         0.0852
     14 C9          2.2744   -6.4173   -5.1422 C.3       1 <0>        -0.0931
     15 C10         1.0188   -6.0252   -5.9235 C.3       1 <0>        -0.1407
     16 C11         1.1359   -6.5182   -7.3428 C.2       1 <0>         0.5146
     17 O3          2.1261   -7.1235   -7.6947 O.2       1 <0>        -0.5379
     18 N3          0.1402   -6.2864   -8.2210 N.am      1 <0>        -0.8628
     19 C12         3.3338   -6.4076   -2.9001 C.2       1 <0>         0.4908
     20 O4          4.0872   -5.6079   -2.3715 O.co2     1 <0>        -0.6849
     21 O5          3.5338   -7.6043   -2.7807 O.co2     1 <0>        -0.6939
     22 H2          1.0039    1.9031    0.0027 H         1 <0>         0.0618
     23 H3         -0.5459    1.8868   -0.8726 H         1 <0>         0.0608
     24 H4         -0.5289    1.8773    0.9072 H         1 <0>         0.0601
     25 H5          0.2319   -0.1594    2.1383 H         1 <0>         0.0677
     26 H6          0.7568   -1.6008    1.2356 H         1 <0>         0.0643
     27 H7          1.7647   -0.1336    1.2338 H         1 <0>         0.0618
     28 H8         -1.9605   -0.1726   -0.8702 H         1 <0>         0.0599
     29 H9         -1.4185   -1.6235    0.0069 H         1 <0>         0.0631
     30 H10        -1.9435   -0.1821    0.9097 H         1 <0>         0.0677
     31 H11         0.4926   -2.4509   -0.8211 H         1 <0>         0.4118
     32 H12         1.0050   -1.9236   -3.5480 H         1 <0>         0.0921
     33 H13         2.5548   -1.9074   -2.6726 H         1 <0>         0.0976
     34 H14         2.5421   -3.9573   -4.4220 H         1 <0>         0.3932
     35 H15         3.1496   -5.9682   -5.6118 H         1 <0>         0.0693
     36 H16         2.3785   -7.5023   -5.1425 H         1 <0>         0.0916
     37 H17         0.1436   -6.4743   -5.4539 H         1 <0>         0.0932
     38 H18         0.9146   -4.9402   -5.9232 H         1 <0>         0.0900
     39 H19        -0.6519   -5.8023   -7.9395 H         1 <0>         0.3994
     40 H20         0.2155   -6.6037   -9.1345 H         1 <0>         0.3967
@<TRIPOS>BOND
     1    1    2 1
     2    1   22 1
     3    1   23 1
     4    1   24 1
     5    2    3 1
     6    2    4 1
     7    2    5 1
     8    3   25 1
     9    3   26 1
    10    3   27 1
    11    4   28 1
    12    4   29 1
    13    4   30 1
    14    5    6 2
    15    5    7 am
    16    7    8 1
    17    7   31 1
    18    8    9 1
    19    8   32 1
    20    8   33 1
    21    9   10 2
    22    9   11 am
    23   11   12 1
    24   11   34 1
    25   12   13 1
    26   12   14 1
    27   12   19 1
    28   14   15 1
    29   14   35 1
    30   14   36 1
    31   15   16 1
    32   15   37 1
    33   15   38 1
    34   16   17 2
    35   16   18 am
    36   18   39 1
    37   18   40 1
    38   19   20 2
    39   19   21 1
@<TRIPOS>MOLECULE
ZINC44887536
   37    37     0     0     0
SMALL
USER_CHARGES

@<TRIPOS>ATOM
      1 C1          0.4005    0.1721    0.6560 C.3       1 <0>        -0.1482
      2 C2          0.1099   -1.2362    0.1333 C.3       1 <0>         0.2563
      3 H1         -0.9680   -1.3827    0.0636 H         1 <0>         0.0948
      4 C3          0.6950   -2.2535    1.0786 C.2       1 <0>         0.0392
      5 N1          0.0279   -3.0047    1.9426 N.2       1 <0>        -0.3761
      6 N2          0.8857   -3.7420    2.5615 N.2       1 <0>        -0.1930
      7 N3          2.0645   -3.4786    2.1154 N.2       1 <0>        -0.1923
      8 N4          1.9750   -2.5733    1.2017 N.2       1 <0>        -0.3791
      9 N5          0.7114   -1.3988   -1.1926 N.am      1 <0>        -0.7021
     10 C4          0.0428   -0.9932   -2.2903 C.2       1 <0>         0.5127
     11 O1         -1.0804   -0.5478   -2.1861 O.2       1 <0>        -0.5473
     12 C5          0.6909   -1.0932   -3.6471 C.3       1 <0>         0.1437
     13 H2          1.1328   -2.0824   -3.7667 H         1 <0>         0.1125
     14 C6          1.7828   -0.0286   -3.7705 C.3       1 <0>        -0.1167
     15 C7          2.8552   -0.2722   -2.7067 C.3       1 <0>        -0.1172
     16 C8          3.5763   -1.5890   -3.0017 C.3       1 <0>        -0.1527
     17 C9          3.8643    0.8776   -2.7271 C.3       1 <0>        -0.1403
     18 N6         -0.3185   -0.8803   -4.6873 N.am      1 <0>        -0.7276
     19 C10        -0.1049   -1.3372   -5.9372 C.2       1 <0>         0.7083
     20 O2          0.8829   -2.0030   -6.1806 O.2       1 <0>        -0.5937
     21 N7         -0.9865   -1.0563   -6.9172 N.am      1 <0>        -0.8673
     22 H3          1.4783    0.3186    0.7256 H         1 <0>         0.0599
     23 H4         -0.0228    0.9079   -0.0278 H         1 <0>         0.0567
     24 H5         -0.0471    0.2931    1.6424 H         1 <0>         0.0644
     25 H6          1.5910   -1.7983   -1.2804 H         1 <0>         0.4110
     26 H7          2.2344   -0.0843   -4.7610 H         1 <0>         0.0804
     27 H8          1.3452    0.9592   -3.6257 H         1 <0>         0.0691
     28 H9          2.3864   -0.3269   -1.7241 H         1 <0>         0.0898
     29 H10         2.8473   -2.3971   -3.0614 H         1 <0>         0.0540
     30 H11         4.1072   -1.5079   -3.9502 H         1 <0>         0.0569
     31 H12         4.2882   -1.8000   -2.2038 H         1 <0>         0.0632
     32 H13         3.3505    1.8157   -2.5169 H         1 <0>         0.0521
     33 H14         4.6282    0.7040   -1.9692 H         1 <0>         0.0587
     34 H15         4.3330    0.9323   -3.7096 H         1 <0>         0.0519
     35 H16        -1.1405   -0.4104   -4.4766 H         1 <0>         0.4065
     36 H17        -1.7746   -0.5252   -6.7230 H         1 <0>         0.3973
     37 H18        -0.8328   -1.3851   -7.8167 H         1 <0>         0.4140
@<TRIPOS>BOND
     1    1    2 1
     2    1   22 1
     3    1   23 1
     4    1   24 1
     5    2    3 1
     6    2    4 1
     7    2    9 1
     8    4    5 1
     9    4    8 2
    10    5    6 1
    11    6    7 2
    12    7    8 1
    13    9   10 am
    14    9   25 1
    15   10   11 2
    16   10   12 1
    17   12   13 1
    18   12   14 1
    19   12   18 1
    20   14   15 1
    21   14   26 1
    22   14   27 1
    23   15   16 1
    24   15   17 1
    25   15   28 1
    26   16   29 1
    27   16   30 1
    28   16   31 1
    29   17   32 1
    30   17   33 1
    31   17   34 1
    32   18   19 am
    33   18   35 1
    34   19   20 2
    35   19   21 am
    36   21   36 1
    37   21   37 1
@<TRIPOS>MOLECULE
ZINC25578858
   25    25     0     0     0
SMALL
USER_CHARGES

@<TRIPOS>ATOM
      1 C1         -0.0187    1.5258    0.0104 C.3       1 <0>        -0.0798
      2 C2          0.0021   -0.0041    0.0020 C.3       1 <0>        -0.0177
      3 C3         -1.4117   -0.5257    0.0127 C.2       1 <0>        -0.3419
      4 C4         -2.1045   -0.6745    1.2099 C.2       1 <0>         0.4637
      5 O1         -1.5223   -0.3551    2.3740 O.2       1 <0>        -0.5854
      6 N1         -3.3679   -1.1432    1.1858 N.am      1 <0>        -0.5750
      7 H1         -3.8565   -1.2490    2.0170 H         1 <0>         0.4319
      8 C5         -3.9531   -1.4623    0.0319 C.cat     1 <0>         0.6956
      9 N2         -3.3162   -1.3311   -1.1312 N.pl3     1 <0>        -0.5752
     10 C6         -2.0531   -0.8629   -1.1749 C.2       1 <0>         0.4633
     11 O2         -1.4204   -0.7284   -2.3486 O.3       1 <0>        -0.5899
     12 N3         -5.2358   -1.9356    0.0416 N.pl3     1 <0>        -0.8196
     13 C7          1.4167    2.0553   -0.0004 C.3       1 <0>        -0.1815
     14 C8          1.3963    3.5622    0.0079 C.2       1 <0>         0.4900
     15 O3          0.3323    4.1574    0.0212 O.co2     1 <0>        -0.7023
     16 O4          2.4437    4.1861    0.0012 O.co2     1 <0>        -0.7146
     17 H2         -0.5459    1.8868   -0.8726 H         1 <0>         0.0511
     18 H3         -0.5289    1.8773    0.9072 H         1 <0>         0.0545
     19 H4          0.5123   -0.3556   -0.8948 H         1 <0>         0.0651
     20 H5          0.5293   -0.3651    0.8851 H         1 <0>         0.0615
     21 H6         -5.7095   -2.0357    0.8821 H         1 <0>         0.4336
     22 H7         -5.6722   -2.1712   -0.7921 H         1 <0>         0.4335
     23 H8          1.9439    1.6943    0.8826 H         1 <0>         0.0538
     24 H9          1.9269    1.7038   -0.8972 H         1 <0>         0.0536
     25 H10        -3.7676   -1.5714   -1.9554 H         1 <0>         0.4318
@<TRIPOS>BOND
     1    1    2 1
     2    1   13 1
     3    1   17 1
     4    1   18 1
     5    2    3 1
     6    2   19 1
     7    2   20 1
     8    3   10 2
     9    3    4 1
    10    4    5 2
    11    4    6 am
    12    6    7 1
    13    6    8 1
    14    8    9 2
    15    8   12 1
    16    9   10 1
    17    9   25 1
    18   10   11 1
    19   12   21 1
    20   12   22 1
    21   13   14 1
    22   13   23 1
    23   13   24 1
    24   14   15 2
    25   14   16 1
@<TRIPOS>MOLECULE
ZINC03793840
   39    39     0     0     0
SMALL
USER_CHARGES

@<TRIPOS>ATOM
      1 C1         -3.4688   -2.4118   -0.6240 C.3       1 <0>        -0.1703
      2 C2         -3.3787   -0.9075   -0.6186 C.2       1 <0>         0.5109
      3 O1         -4.2684   -0.2485   -0.1236 O.2       1 <0>        -0.5211
      4 N1         -2.3093   -0.2945   -1.1637 N.am      1 <0>        -0.7213
      5 C3         -2.2217    1.1679   -1.1584 C.3       1 <0>         0.1332
      6 H1         -2.6683    1.5572   -0.2435 H         1 <0>         0.1067
      7 C4         -2.9687    1.7301   -2.3718 C.3       1 <0>         0.0968
      8 H2         -2.5560    1.3027   -3.2856 H         1 <0>         0.0604
      9 C5         -2.8042    3.2528   -2.3985 C.3       1 <0>        -0.1441
     10 C6         -1.3126    3.5968   -2.4239 C.3       1 <0>         0.2507
     11 O2         -0.6723    3.0184   -1.2847 O.3       1 <0>        -0.3596
     12 C7         -0.7527    1.5927   -1.2315 C.3       1 <0>         0.0572
     13 H3         -0.2959    1.1692   -2.1260 H         1 <0>         0.0788
     14 C8         -0.0127    1.0858    0.0080 C.3       1 <0>         0.0996
     15 H4          0.0021   -0.0041    0.0020 H         1 <0>         0.1047
     16 C9          1.4227    1.6154   -0.0028 C.3       1 <0>         0.0787
     17 H5          1.4079    2.7053    0.0031 H         1 <0>         0.1239
     18 C10         2.1627    1.1086    1.2367 C.3       1 <0>         0.0485
     19 O3          3.4644    1.6958    1.2876 O.3       1 <0>        -0.5625
     20 O4          2.0915    1.1546   -1.1786 O.3       1 <0>        -0.5390
     21 O5         -0.6816    1.5467    1.1837 O.3       1 <0>        -0.5514
     22 C11        -1.1415    5.0937   -2.3906 C.2       1 <0>         0.4622
     23 O6         -0.4581    5.6047   -1.5352 O.co2     1 <0>        -0.6074
     24 O7         -0.7235    3.0762   -3.6172 O.3       1 <0>        -0.5625
     25 O8         -4.3557    1.4007   -2.2740 O.3       1 <0>        -0.5484
     26 H6         -3.0095   -2.8066    0.2822 H         1 <0>         0.0885
     27 H7         -4.5157   -2.7129   -0.6616 H         1 <0>         0.0896
     28 H8         -2.9464   -2.8039   -1.4966 H         1 <0>         0.0750
     29 H9         -1.5977   -0.8216   -1.5596 H         1 <0>         0.3925
     30 H10        -3.2625    3.6843   -1.5087 H         1 <0>         0.0861
     31 H11        -3.2863    3.6566   -3.2888 H         1 <0>         0.0922
     32 H12         1.6044    1.3845    2.1313 H         1 <0>         0.0633
     33 H13         2.2552    0.0237    1.1863 H         1 <0>         0.0432
     34 H14         3.9914    1.4187    2.0496 H         1 <0>         0.3752
     35 H15         2.1422    0.1915   -1.2503 H         1 <0>         0.3643
     36 H16        -0.7322    2.5097    1.2555 H         1 <0>         0.3909
     37 H17         0.2229    3.2567   -3.6997 H         1 <0>         0.3798
     38 H18        -4.8914    1.7321   -3.0078 H         1 <0>         0.3713
     39 O9         -1.7482    5.8592   -3.3112 O.co2     1 <0>        -0.7368
@<TRIPOS>BOND
     1    1    2 1
     2    1   26 1
     3    1   27 1
     4    1   28 1
     5    2    3 2
     6    2    4 am
     7    4    5 1
     8    4   29 1
     9    5    6 1
    10    5   12 1
    11    5    7 1
    12    7    8 1
    13    7    9 1
    14    7   25 1
    15    9   10 1
    16    9   30 1
    17    9   31 1
    18   10   11 1
    19   10   22 1
    20   10   24 1
    21   11   12 1
    22   12   13 1
    23   12   14 1
    24   14   15 1
    25   14   16 1
    26   14   21 1
    27   16   17 1
    28   16   18 1
    29   16   20 1
    30   18   19 1
    31   18   32 1
    32   18   33 1
    33   19   34 1
    34   20   35 1
    35   21   36 1
    36   22   23 2
    37   22   39 1
    38   24   37 1
    39   25   38 1
@<TRIPOS>MOLECULE
ZINC35395333
   34    35     0     0     0
SMALL
USER_CHARGES

@<TRIPOS>ATOM
      1 C1         -0.0170    1.4058    0.0098 C.2       1 <0>        -0.3419
      2 C2          1.1585    2.0778    0.0022 C.2       1 <0>         0.2363
      3 N1          2.3268    1.3767   -0.0128 N.am      1 <0>        -0.4834
      4 C3          2.3121    0.0311   -0.0199 C.2       1 <0>         0.6889
      5 O1          3.3676   -0.5804   -0.0328 O.2       1 <0>        -0.5489
      6 N2          1.1640   -0.6440   -0.0125 N.2       1 <0>        -0.6176
      7 C4          0.0021   -0.0041    0.0020 C.2       1 <0>         0.5021
      8 N3         -1.1774   -0.7119    0.0095 N.pl3     1 <0>        -0.8303
      9 C5          3.6056    2.0915   -0.0216 C.3       1 <0>         0.3248
     10 H1          4.1715    1.8441   -0.9198 H         1 <0>         0.0845
     11 C6          4.4240    1.7452    1.2420 C.3       1 <0>         0.0779
     12 H2          5.1661    0.9788    1.0183 H         1 <0>         0.0232
     13 C7          5.1153    3.0750    1.6176 C.3       1 <0>         0.0389
     14 H3          6.1992    2.9660    1.5796 H         1 <0>         0.0459
     15 C8          4.6328    4.0673    0.5364 C.3       1 <0>         0.0626
     16 H4          5.3571    4.1249   -0.2761 H         1 <0>         0.0722
     17 O2          3.3855    3.5166    0.0574 O.3       1 <0>        -0.3659
     18 C9          4.4077    5.4521    1.1469 C.3       1 <0>         0.0828
     19 O3          4.0752    6.3803    0.1125 O.3       1 <0>        -0.5686
     20 O4          4.7018    3.5050    2.9161 O.3       1 <0>        -0.5202
     21 N4          3.5385    1.3010    2.3213 N.2       1 <0>        -0.6622
     22 N5          4.0623    0.9450    3.5316 N.4       1 <0>         0.0033
     23 N6          3.0530    0.5693    4.3718 N.2       1 <0>        -0.9368
     24 H5         -0.9547    1.9414    0.0261 H         1 <0>         0.1405
     25 H6          1.1700    3.1577    0.0075 H         1 <0>         0.1656
     26 H7         -2.0255   -0.2412    0.0201 H         1 <0>         0.4069
     27 H8         -1.1611   -1.6818    0.0041 H         1 <0>         0.4049
     28 H9          3.5912    5.4031    1.8674 H         1 <0>         0.0684
     29 H10         5.3173    5.7795    1.6503 H         1 <0>         0.0528
     30 H11         3.9185    7.2809    0.4278 H         1 <0>         0.3755
     31 H12         5.1057    4.3356    3.2025 H         1 <0>         0.3472
     32 H13         4.7015    0.1742    3.4079 H         1 <0>         0.1955
     33 H14         3.2558    0.2854    5.2769 H         1 <0>         0.2342
     34 H15         4.5557    1.7305    3.9287 H         1 <0>         0.2407
@<TRIPOS>BOND
     1    1    7 1
     2    1    2 2
     3    1   24 1
     4    2    3 1
     5    2   25 1
     6    3    4 am
     7    3    9 1
     8    4    5 2
     9    4    6 1
    10    6    7 2
    11    7    8 1
    12    8   26 1
    13    8   27 1
    14    9   10 1
    15    9   17 1
    16    9   11 1
    17   11   12 1
    18   11   13 1
    19   11   21 1
    20   13   14 1
    21   13   15 1
    22   13   20 1
    23   15   16 1
    24   15   17 1
    25   15   18 1
    26   18   19 1
    27   18   28 1
    28   18   29 1
    29   19   30 1
    30   20   31 1
    31   21   22 1
    32   22   23 1
    33   22   32 1
    34   22   34 1
    35   23   33 1
@<TRIPOS>MOLECULE
ZINC13957071
   16    16     0     0     0
SMALL
USER_CHARGES

@<TRIPOS>ATOM
      1 C1         -0.0171    1.4044    0.0120 C.2       1 <0>        -0.5499
      2 H1         -3.2626    1.7636    0.0770 H         1 <0>         0.4148
      3 C2          0.0016   -0.0037   -0.0116 C.2       1 <0>         0.5657
      4 O1          1.0660   -0.6093   -0.0406 O.2       1 <0>        -0.5892
      5 N1         -1.1746   -0.6816   -0.0014 N.am      1 <0>        -0.6718
      6 C3         -2.3466   -0.0241    0.0308 C.2       1 <0>         0.7136
      7 O2         -3.3828   -0.6595    0.0395 O.2       1 <0>        -0.5872
      8 N2         -2.4008    1.3188    0.0540 N.am      1 <0>        -0.6738
      9 C4         -1.2632    2.0597    0.0515 C.2       1 <0>         0.5669
     10 O3         -1.3199    3.2831    0.0730 O.3       1 <0>        -0.5459
     11 C5          1.2329    2.1708    0.0019 C.2       1 <0>         0.6081
     12 O4          1.2017    3.3847   -0.0799 O.2       1 <0>        -0.5792
     13 N3          2.4163    1.5311    0.0833 N.am      1 <0>        -0.8705
     14 H2         -1.1693   -1.6514   -0.0179 H         1 <0>         0.4149
     15 H3          2.4452    0.5616    0.0738 H         1 <0>         0.4060
     16 H4          3.2392    2.0402    0.1513 H         1 <0>         0.3775
@<TRIPOS>BOND
     1    1    3 1
     2    1   11 1
     3    1    9 2
     4    2    8 1
     5    3    4 2
     6    3    5 am
     7    5    6 am
     8    5   14 1
     9    6    8 am
    10    6    7 2
    11    8    9 1
    12    9   10 1
    13   11   12 2
    14   11   13 am
    15   13   15 1
    16   13   16 1
@<TRIPOS>MOLECULE
ZINC44608603
   27    27     0     0     0
SMALL
USER_CHARGES

@<TRIPOS>ATOM
      1 C1         -0.0187    1.5258    0.0104 C.3       1 <0>         0.0962
      2 C2          0.0021   -0.0041    0.0020 C.3       1 <0>         0.1090
      3 H1          0.6044   -0.3640    0.8361 H         1 <0>         0.0953
      4 C3         -1.4274   -0.5348    0.1380 C.3       1 <0>         0.0904
      5 H2         -2.0404   -0.1423   -0.6733 H         1 <0>         0.0882
      6 C4         -1.4045   -2.0648    0.0683 C.3       1 <0>         0.0864
      7 H3         -2.4246   -2.4470    0.1083 H         1 <0>         0.0688
      8 C5         -0.7473   -2.4952   -1.2466 C.3       1 <0>         0.0562
      9 H4         -0.6768   -3.5825   -1.2798 H         1 <0>         0.0748
     10 C6          0.6560   -1.8888   -1.3292 C.3       1 <0>         0.2274
     11 H5          1.1123   -2.1566   -2.2821 H         1 <0>         0.0988
     12 O1          0.5657   -0.4663   -1.2271 O.3       1 <0>        -0.3675
     13 O2          1.4569   -2.3935   -0.2587 O.3       1 <0>        -0.5633
     14 O3         -1.5337   -2.0339   -2.3470 O.3       1 <0>        -0.5435
     15 O4         -0.6566   -2.5824    1.1705 O.3       1 <0>        -0.5228
     16 O5         -1.9732   -0.1208    1.3921 O.3       1 <0>        -0.5440
     17 O6          1.3220    2.0204    0.0003 O.3       1 <0>        -0.7753
     18 S1          1.4215    3.5391    0.0075 S.o2      1 <0>         2.7755
     19 O7          2.7874    3.8746   -0.3640 O.2       1 <0>        -1.0708
     20 O8          0.4577    4.0302   -0.9650 O.2       1 <0>        -1.0981
     21 O9          1.1025    3.9769    1.3575 O.3       1 <0>        -1.0929
     22 H6         -0.5459    1.8868   -0.8726 H         1 <0>         0.0879
     23 H7         -0.5289    1.8773    0.9072 H         1 <0>         0.0956
     24 H8          2.3611   -2.0508   -0.2487 H         1 <0>         0.3900
     25 H9         -1.1756   -2.2714   -3.2133 H         1 <0>         0.3854
     26 H10        -0.6008   -3.5476    1.1893 H         1 <0>         0.3738
     27 H11        -2.8790   -0.4225    1.5457 H         1 <0>         0.3786
@<TRIPOS>BOND
     1    1    2 1
     2    1   17 1
     3    1   22 1
     4    1   23 1
     5    2    3 1
     6    2   12 1
     7    2    4 1
     8    4    5 1
     9    4    6 1
    10    4   16 1
    11    6    7 1
    12    6    8 1
    13    6   15 1
    14    8    9 1
    15    8   10 1
    16    8   14 1
    17   10   11 1
    18   10   12 1
    19   10   13 1
    20   13   24 1
    21   14   25 1
    22   15   26 1
    23   16   27 1
    24   17   18 1
    25   18   19 2
    26   18   20 2
    27   18   21 1
@<TRIPOS>MOLECULE
ZINC55169603
   21    22     0     0     0
SMALL
USER_CHARGES

@<TRIPOS>ATOM
      1 C1         -0.0184    1.5028    0.0103 C.3       1 <0>         0.2407
      2 C2          0.0021   -0.0041    0.0020 C.2       1 <0>         0.0273
      3 N1          0.0085   -0.7883   -1.0661 N.2       1 <0>        -0.3702
      4 N2          0.0272   -2.0095   -0.6528 N.2       1 <0>        -0.1928
      5 N3          0.0327   -2.0165    0.6347 N.2       1 <0>        -0.1928
      6 N4          0.0229   -0.7998    1.0614 N.2       1 <0>        -0.3702
      7 N5          1.3560    2.0099   -0.0001 N.am      1 <0>        -0.6925
      8 C3          1.5843    3.3381    0.0049 C.2       1 <0>         0.6048
      9 O1          0.6498    4.1154    0.0180 O.2       1 <0>        -0.5148
     10 C4          2.9713    3.8498   -0.0056 C.2       1 <0>         0.2298
     11 N6          3.3266    5.1453    0.0033 N.2       1 <0>        -0.5380
     12 C5          4.6352    5.2445   -0.0099 C.2       1 <0>         0.5309
     13 N7          5.1515    3.9940   -0.0279 N.pl3     1 <0>        -0.5077
     14 H1          6.0914    3.7544   -0.0406 H         1 <0>         0.4390
     15 N8          4.0596    3.1112   -0.0195 N.2       1 <0>        -0.2792
     16 N9          5.3602    6.4222   -0.0066 N.pl3     1 <0>        -0.8238
     17 H2         -0.5455    1.8639   -0.8728 H         1 <0>         0.0809
     18 H3         -0.5286    1.8543    0.9071 H         1 <0>         0.0809
     19 H4          2.1018    1.3896   -0.0105 H         1 <0>         0.4091
     20 H5          4.8992    7.2755    0.0069 H         1 <0>         0.4261
     21 H6          6.3298    6.3949   -0.0177 H         1 <0>         0.4125
@<TRIPOS>BOND
     1    1    2 1
     2    1    7 1
     3    1   17 1
     4    1   18 1
     5    2    6 2
     6    2    3 1
     7    3    4 1
     8    4    5 2
     9    5    6 1
    10    7    8 am
    11    7   19 1
    12    8    9 2
    13    8   10 1
    14   10   15 2
    15   10   11 1
    16   11   12 2
    17   12   13 1
    18   12   16 1
    19   13   14 1
    20   13   15 1
    21   16   20 1
    22   16   21 1
@<TRIPOS>MOLECULE
ZINC10041292
   33    34     0     0     0
SMALL
USER_CHARGES
7-(3-carboxypropanoylamino)-3-methyl-8-oxo-5-thia-1-azabicyclo[4.2.0]oct-2-ene-2-carboxylic acid
@<TRIPOS>ATOM
      1 C1          9.3042    8.1118    1.3733 C.3       1 <0>        -0.0710
      2 C2          7.9864    7.8512    0.6902 C.2       1 <0>        -0.1738
      3 C3          6.9028    8.2066    1.3787 C.2       1 <0>         0.0844
      4 N1          5.6184    7.9610    0.8510 N.am      1 <0>        -0.5648
      5 C4          5.2903    7.6994   -0.5876 C.3       1 <0>         0.1379
      6 H1          5.1836    8.5714   -1.2328 H         1 <0>         0.1428
      7 C5          4.0038    7.1459    0.0022 C.3       1 <0>         0.1187
      8 H2          3.1069    7.6016   -0.4175 H         1 <0>         0.1367
      9 C6          4.3937    7.7217    1.3453 C.2       1 <0>         0.5390
     10 O1          3.8390    7.8927    2.4103 O.2       1 <0>        -0.4359
     11 N2          3.9470    5.6820   -0.0051 N.am      1 <0>        -0.7084
     12 C7          2.7546    5.0539    0.0029 C.2       1 <0>         0.5176
     13 O2          1.7286    5.7005    0.0162 O.2       1 <0>        -0.5369
     14 C8          2.6961    3.5480   -0.0046 C.3       1 <0>        -0.1149
     15 C9          1.2350    3.0943    0.0069 C.3       1 <0>        -0.1405
     16 C10         1.1765    1.5884   -0.0006 C.2       1 <0>         0.4622
     17 O3          2.1986    0.9442   -0.0139 O.co2     1 <0>        -0.6436
     18 S1          6.4969    6.4519   -1.1513 S.3       1 <0>        -0.2371
     19 C11         8.0700    7.2260   -0.6642 C.3       1 <0>        -0.0199
     20 C12         7.0415    8.8640    2.6908 C.2       1 <0>         0.4899
     21 O4          6.0512    9.1922    3.3137 O.co2     1 <0>        -0.6029
     22 H3         10.1190    7.7829    0.7283 H         1 <0>         0.0173
     23 H4          9.4059    9.1788    1.5716 H         1 <0>         0.0839
     24 H5          9.3408    7.5622    2.3139 H         1 <0>         0.0762
     25 H6          4.7675    5.1648   -0.0157 H         1 <0>         0.4133
     26 H7          3.2039    3.1603    0.8785 H         1 <0>         0.0950
     27 H8          3.1869    3.1698   -0.9014 H         1 <0>         0.0951
     28 H9          0.7272    3.4820   -0.8762 H         1 <0>         0.0707
     29 H10         0.7441    3.4725    0.9036 H         1 <0>         0.0717
     30 H11         8.8520    6.4667   -0.6569 H         1 <0>         0.1160
     31 H12         8.3283    7.9941   -1.3931 H         1 <0>         0.0919
     32 O5         -0.0110    0.9628    0.0073 O.co2     1 <0>        -0.7775
     33 O6          8.2668    9.1010    3.1996 O.co2     1 <0>        -0.7330
@<TRIPOS>BOND
     1    1    2 1
     2    1   22 1
     3    1   23 1
     4    1   24 1
     5    2   19 1
     6    2    3 2
     7    3    4 1
     8    3   20 1
     9    4    9 am
    10    4    5 1
    11    5    6 1
    12    5    7 1
    13    5   18 1
    14    7    8 1
    15    7    9 1
    16    7   11 1
    17    9   10 2
    18   11   12 am
    19   11   25 1
    20   12   13 2
    21   12   14 1
    22   14   15 1
    23   14   26 1
    24   14   27 1
    25   15   16 1
    26   15   28 1
    27   15   29 1
    28   16   17 2
    29   16   32 1
    30   18   19 1
    31   19   30 1
    32   19   31 1
    33   20   21 2
    34   20   33 1
@<TRIPOS>MOLECULE
ZINC37584126
   38    37     0     0     0
SMALL
USER_CHARGES

@<TRIPOS>ATOM
      1 C1         -0.0187    1.5258    0.0104 C.3       1 <0>        -0.1238
      2 C2          0.0021   -0.0041    0.0020 C.3       1 <0>        -0.0854
      3 C3          0.7421   -0.5109    1.2415 C.3       1 <0>        -0.1419
      4 C4         -1.4333   -0.5336    0.0129 C.3       1 <0>        -0.1426
      5 C5          0.7074   -0.4901   -1.2379 C.2       1 <0>         0.5204
      6 O1          1.1500    0.3085   -2.0362 O.2       1 <0>        -0.5487
      7 N1          0.8465   -1.8122   -1.4596 N.am      1 <0>        -0.7074
      8 C6          1.5322   -2.2846   -2.6649 C.3       1 <0>         0.0994
      9 C7          1.5527   -3.7915   -2.6732 C.2       1 <0>         0.5006
     10 O2          1.0445   -4.4098   -1.7620 O.2       1 <0>        -0.5574
     11 N2          2.1357   -4.4519   -3.6932 N.am      1 <0>        -0.6758
     12 C8          2.1555   -5.9168   -3.7012 C.3       1 <0>         0.0745
     13 H1          2.2598   -6.2843   -2.6804 H         1 <0>         0.0778
     14 C9          3.3360   -6.4062   -4.5426 C.3       1 <0>        -0.0829
     15 C10         4.6470   -5.9873   -3.8742 C.3       1 <0>        -0.1771
     16 C11         5.8097   -6.4693   -4.7029 C.2       1 <0>         0.4906
     17 O3          5.6085   -7.0904   -5.7326 O.co2     1 <0>        -0.6972
     18 O4          6.9517   -6.2383   -4.3437 O.co2     1 <0>        -0.7193
     19 C12         0.8691   -6.4333   -4.2922 C.2       1 <0>         0.4977
     20 O5          0.2781   -5.7777   -5.1333 O.co2     1 <0>        -0.6986
     21 O6          0.4193   -7.5069   -3.9293 O.co2     1 <0>        -0.7005
     22 H2          1.0039    1.9031    0.0027 H         1 <0>         0.0608
     23 H3         -0.5459    1.8868   -0.8726 H         1 <0>         0.0609
     24 H4         -0.5289    1.8773    0.9072 H         1 <0>         0.0578
     25 H5          0.2319   -0.1594    2.1383 H         1 <0>         0.0654
     26 H6          0.7568   -1.6008    1.2356 H         1 <0>         0.0646
     27 H7          1.7647   -0.1336    1.2338 H         1 <0>         0.0606
     28 H8         -1.9605   -0.1726   -0.8702 H         1 <0>         0.0608
     29 H9         -1.4185   -1.6235    0.0069 H         1 <0>         0.0650
     30 H10        -1.9435   -0.1821    0.9097 H         1 <0>         0.0655
     31 H11         0.4926   -2.4509   -0.8211 H         1 <0>         0.4110
     32 H12         1.0050   -1.9236   -3.5480 H         1 <0>         0.0964
     33 H13         2.5548   -1.9074   -2.6726 H         1 <0>         0.0947
     34 H14         2.5421   -3.9573   -4.4220 H         1 <0>         0.3960
     35 H15         3.2997   -7.4927   -4.6222 H         1 <0>         0.0728
     36 H16         3.2793   -5.9668   -5.5385 H         1 <0>         0.0614
     37 H17         4.6833   -4.9008   -3.7946 H         1 <0>         0.0515
     38 H18         4.7037   -6.4266   -2.8783 H         1 <0>         0.0523
@<TRIPOS>BOND
     1    1    2 1
     2    1   22 1
     3    1   23 1
     4    1   24 1
     5    2    3 1
     6    2    4 1
     7    2    5 1
     8    3   25 1
     9    3   26 1
    10    3   27 1
    11    4   28 1
    12    4   29 1
    13    4   30 1
    14    5    6 2
    15    5    7 am
    16    7    8 1
    17    7   31 1
    18    8    9 1
    19    8   32 1
    20    8   33 1
    21    9   10 2
    22    9   11 am
    23   11   12 1
    24   11   34 1
    25   12   13 1
    26   12   14 1
    27   12   19 1
    28   14   15 1
    29   14   35 1
    30   14   36 1
    31   15   16 1
    32   15   37 1
    33   15   38 1
    34   16   17 2
    35   16   18 1
    36   19   20 2
    37   19   21 1
@<TRIPOS>MOLECULE
ZINC40574432
   37    37     0     0     0
SMALL
USER_CHARGES

@<TRIPOS>ATOM
      1 C1         -0.0173    1.4248    0.0099 C.3       1 <0>         0.0354
      2 O1          0.0021   -0.0041    0.0020 O.3       1 <0>        -0.3617
      3 C2          0.5984   -0.5997   -1.0427 C.2       1 <0>         0.4441
      4 O2          1.0877    0.0699   -1.9214 O.2       1 <0>        -0.4713
      5 C3          0.6575   -2.1036   -1.1196 C.3       1 <0>         0.1727
      6 H1         -0.2909   -2.5290   -0.7918 H         1 <0>         0.1058
      7 C4          1.8040   -2.6299   -0.2307 C.3       1 <0>        -0.1149
      8 C5          2.3846   -3.7995   -1.0688 C.3       1 <0>        -0.1272
      9 C6          2.2247   -3.2579   -2.5112 C.3       1 <0>         0.0976
     10 N1          0.9432   -2.5228   -2.4996 N.am      1 <0>        -0.6268
     11 C7          0.1652   -2.2767   -3.5723 C.2       1 <0>         0.7271
     12 O3         -0.8735   -1.6583   -3.4409 O.2       1 <0>        -0.5917
     13 N2          0.5384   -2.7160   -4.7905 N.am      1 <0>        -0.6931
     14 C8         -0.3072   -2.4486   -5.9565 C.3       1 <0>         0.0921
     15 H2         -1.3557   -2.4818   -5.6602 H         1 <0>         0.0751
     16 C9         -0.0466   -3.5078   -7.0293 C.3       1 <0>        -0.0818
     17 C10        -0.4914   -4.8774   -6.5123 C.3       1 <0>        -0.1754
     18 C11        -0.2347   -5.9208   -7.5690 C.2       1 <0>         0.4911
     19 O4          0.2583   -5.5988   -8.6366 O.co2     1 <0>        -0.6975
     20 O5         -0.5200   -7.0869   -7.3563 O.co2     1 <0>        -0.7206
     21 C12         0.0157   -1.0841   -6.5088 C.2       1 <0>         0.4971
     22 O6          1.1415   -0.6305   -6.3934 O.co2     1 <0>        -0.6967
     23 O7         -0.8489   -0.4338   -7.0711 O.co2     1 <0>        -0.7050
     24 H3          1.0053    1.8021    0.0021 H         1 <0>         0.0545
     25 H4         -0.5445    1.7859   -0.8732 H         1 <0>         0.0605
     26 H5         -0.5275    1.7763    0.9067 H         1 <0>         0.0951
     27 H6          2.5565   -1.8570   -0.0741 H         1 <0>         0.0780
     28 H7          1.4180   -2.9925    0.7219 H         1 <0>         0.0938
     29 H8          3.4344   -3.9684   -0.8290 H         1 <0>         0.0864
     30 H9          1.8016   -4.7093   -0.9262 H         1 <0>         0.0824
     31 H10         3.0468   -2.5857   -2.7574 H         1 <0>         0.0693
     32 H11         2.1813   -4.0820   -3.2233 H         1 <0>         0.0825
     33 H12         1.3670   -3.2093   -4.8953 H         1 <0>         0.3882
     34 H13        -0.6087   -3.2592   -7.9295 H         1 <0>         0.0728
     35 H14         1.0180   -3.5354   -7.2617 H         1 <0>         0.0596
     36 H15         0.0707   -5.1261   -5.6121 H         1 <0>         0.0503
     37 H16        -1.5560   -4.8499   -6.2799 H         1 <0>         0.0523
@<TRIPOS>BOND
     1    1    2 1
     2    1   24 1
     3    1   25 1
     4    1   26 1
     5    2    3 1
     6    3    4 2
     7    3    5 1
     8    5    6 1
     9    5   10 1
    10    5    7 1
    11    7    8 1
    12    7   27 1
    13    7   28 1
    14    8    9 1
    15    8   29 1
    16    8   30 1
    17    9   10 1
    18    9   31 1
    19    9   32 1
    20   10   11 am
    21   11   12 2
    22   11   13 am
    23   13   14 1
    24   13   33 1
    25   14   15 1
    26   14   16 1
    27   14   21 1
    28   16   17 1
    29   16   34 1
    30   16   35 1
    31   17   18 1
    32   17   36 1
    33   17   37 1
    34   18   19 2
    35   18   20 1
    36   21   22 2
    37   21   23 1
@<TRIPOS>MOLECULE
ZINC44935936
   32    32     0     0     0
SMALL
USER_CHARGES

@<TRIPOS>ATOM
      1 C1         -0.0187    1.5258    0.0104 C.3       1 <0>        -0.1403
      2 C2          0.0021   -0.0041    0.0020 C.3       1 <0>        -0.1166
      3 C3         -1.4333   -0.5336    0.0129 C.3       1 <0>         0.0891
      4 H1         -1.9701   -0.1109    0.8621 H         1 <0>         0.0934
      5 C4         -1.4136   -2.0361    0.1285 C.2       1 <0>         0.4919
      6 O1         -1.4274   -2.5632    1.2278 O.co2     1 <0>        -0.7029
      7 O2         -1.3838   -2.7245   -0.8773 O.co2     1 <0>        -0.6885
      8 N1         -2.1054   -0.1483   -1.2305 N.am      1 <0>        -0.6011
      9 C5         -1.5729   -0.5955   -2.5200 C.3       1 <0>         0.1019
     10 C6         -3.2136    0.6176   -1.1881 C.2       1 <0>         0.7043
     11 O3         -3.6555    0.9887   -0.1180 O.2       1 <0>        -0.6095
     12 N2         -3.8319    0.9721   -2.3320 N.am      1 <0>        -0.7336
     13 C7         -5.0365    1.8046   -2.2860 C.3       1 <0>         0.2747
     14 H2         -5.6228    1.5468   -1.4040 H         1 <0>         0.0892
     15 C8         -4.6349    3.2794   -2.2182 C.3       1 <0>        -0.1445
     16 C9         -5.8605    1.5648   -3.5247 C.2       1 <0>         0.0537
     17 N3         -7.1718    1.3818   -3.5782 N.2       1 <0>        -0.3804
     18 N4         -7.4913    1.2109   -4.8156 N.2       1 <0>        -0.2020
     19 N5         -6.4271    1.2805   -5.5370 N.2       1 <0>        -0.2014
     20 N6         -5.4141    1.5021   -4.7707 N.2       1 <0>        -0.3809
     21 H3          1.0039    1.9031    0.0027 H         1 <0>         0.0405
     22 H4         -0.5459    1.8868   -0.8726 H         1 <0>         0.0508
     23 H5         -0.5289    1.8773    0.9072 H         1 <0>         0.0503
     24 H6          0.5123   -0.3556   -0.8948 H         1 <0>         0.0591
     25 H7          0.5293   -0.3651    0.8851 H         1 <0>         0.0656
     26 H8         -2.0230   -1.5516   -2.7870 H         1 <0>         0.0625
     27 H9         -1.8080    0.1433   -3.2861 H         1 <0>         0.0451
     28 H10        -0.4916   -0.7110   -2.4462 H         1 <0>         0.0635
     29 H11        -3.4793    0.6760   -3.1858 H         1 <0>         0.3993
     30 H12        -5.5311    3.8988   -2.1839 H         1 <0>         0.0556
     31 H13        -4.0388    3.4528   -1.3222 H         1 <0>         0.0574
     32 H14        -4.0485    3.5372   -3.1001 H         1 <0>         0.0535
@<TRIPOS>BOND
     1    1    2 1
     2    1   21 1
     3    1   22 1
     4    1   23 1
     5    2    3 1
     6    2   24 1
     7    2   25 1
     8    3    4 1
     9    3    5 1
    10    3    8 1
    11    5    6 2
    12    5    7 1
    13    8    9 1
    14    8   10 am
    15    9   26 1
    16    9   27 1
    17    9   28 1
    18   10   11 2
    19   10   12 am
    20   12   13 1
    21   12   29 1
    22   13   14 1
    23   13   15 1
    24   13   16 1
    25   15   30 1
    26   15   31 1
    27   15   32 1
    28   16   17 1
    29   16   20 2
    30   17   18 1
    31   18   19 2
    32   19   20 1
@<TRIPOS>MOLECULE
ZINC61176846
   35    35     0     0     0
SMALL
USER_CHARGES

@<TRIPOS>ATOM
      1 C1          0.0068    1.6172    0.1885 C.3       1 <0>        -0.1674
      2 C2          0.0029    0.0912    0.0772 C.3       1 <0>         0.1023
      3 N1          0.7142   -0.4837    1.2217 N.am      1 <0>        -0.6016
      4 C3          0.0606   -0.7050    2.3794 C.2       1 <0>         0.7201
      5 O1          0.6509   -1.1821    3.3292 O.2       1 <0>        -0.5795
      6 N2         -1.2474   -0.3974    2.4842 N.am      1 <0>        -0.7372
      7 C4         -1.9579   -0.6379    3.7426 C.3       1 <0>         0.2750
      8 H1         -1.5686   -1.5410    4.2128 H         1 <0>         0.0897
      9 C5         -1.7530    0.5539    4.6798 C.3       1 <0>        -0.1434
     10 C6         -3.4288   -0.8108    3.4639 C.2       1 <0>         0.0584
     11 N3         -4.2244   -1.7424    3.9689 N.2       1 <0>        -0.3795
     12 N4         -5.4047   -1.5500    3.4868 N.2       1 <0>        -0.2039
     13 N5         -5.3751   -0.5319    2.6990 N.2       1 <0>        -0.2048
     14 N6         -4.1767   -0.0571    2.6713 N.2       1 <0>        -0.3836
     15 C7          2.1360   -0.8181    1.1077 C.3       1 <0>         0.1166
     16 C8          2.6342   -0.4568   -0.2931 C.3       1 <0>        -0.1300
     17 C9          2.9305   -0.0295    2.1507 C.3       1 <0>        -0.1361
     18 C10         2.3252   -2.2945    1.3429 C.2       1 <0>         0.5029
     19 O2          1.3543   -3.0213    1.4676 O.co2     1 <0>        -0.6714
     20 O3          3.4492   -2.7622    1.4085 O.co2     1 <0>        -0.7126
     21 H2          1.0352    1.9783    0.1959 H         1 <0>         0.0538
     22 H3         -0.5225    2.0449   -0.6630 H         1 <0>         0.0562
     23 H4         -0.4896    1.9154    1.1120 H         1 <0>         0.0573
     24 H5         -1.0255   -0.2699    0.0699 H         1 <0>         0.0646
     25 H6          0.4993   -0.2070   -0.8462 H         1 <0>         0.0773
     26 H7         -1.7184   -0.0167    1.7265 H         1 <0>         0.3932
     27 H8         -2.1424    1.4570    4.2097 H         1 <0>         0.0514
     28 H9         -2.2816    0.3750    5.6161 H         1 <0>         0.0540
     29 H10        -0.6892    0.6790    4.8814 H         1 <0>         0.0569
     30 H11         2.4973    0.6111   -0.4632 H         1 <0>         0.0462
     31 H12         3.6920   -0.7056   -0.3779 H         1 <0>         0.0656
     32 H13         2.0681   -1.0186   -1.0361 H         1 <0>         0.0509
     33 H14         2.5756   -0.2869    3.1486 H         1 <0>         0.0718
     34 H15         3.9884   -0.2783    2.0659 H         1 <0>         0.0563
     35 H16         2.7936    1.0384    1.9806 H         1 <0>         0.0306
@<TRIPOS>BOND
     1    1    2 1
     2    1   21 1
     3    1   22 1
     4    1   23 1
     5    2    3 1
     6    2   24 1
     7    2   25 1
     8    3    4 am
     9    3   15 1
    10    4    5 2
    11    4    6 am
    12    6    7 1
    13    6   26 1
    14    7    8 1
    15    7    9 1
    16    7   10 1
    17    9   27 1
    18    9   28 1
    19    9   29 1
    20   10   11 2
    21   10   14 1
    22   11   12 1
    23   12   13 2
    24   13   14 1
    25   15   16 1
    26   15   17 1
    27   15   18 1
    28   16   30 1
    29   16   31 1
    30   16   32 1
    31   17   33 1
    32   17   34 1
    33   17   35 1
    34   18   19 2
    35   18   20 1
@<TRIPOS>MOLECULE
ZINC13520285
   38    37     0     0     0
SMALL
USER_CHARGES
(2R)-2-amino-5-[[(1S)-1-(carboxymethylcarbamoyl)propyl]amino]-5-oxo-pentanoic acid
@<TRIPOS>ATOM
      1 C1         -3.8107   -0.8962   -1.1727 C.3       1 <0>        -0.1408
      2 C2         -2.5571   -0.0212   -1.2352 C.3       1 <0>        -0.1315
      3 C3         -2.4820    0.8526    0.0185 C.3       1 <0>         0.1272
      4 H1         -2.5271    0.2204    0.9052 H         1 <0>         0.1161
      5 C4         -1.1873    1.6238    0.0165 C.2       1 <0>         0.5022
      6 O1         -1.2037    2.8365    0.0232 O.2       1 <0>        -0.5565
      7 N1         -0.0111    0.9658    0.0074 N.am      1 <0>        -0.6942
      8 C5          1.2475    1.7155   -0.0006 C.3       1 <0>         0.0752
      9 C6          2.4061    0.7519   -0.0169 C.2       1 <0>         0.4585
     10 O2          2.2015   -0.4389   -0.0213 O.co2     1 <0>        -0.6337
     11 N2         -3.6084    1.7894    0.0289 N.am      1 <0>        -0.7065
     12 C7         -4.8005    1.4043    0.5257 C.2       1 <0>         0.5130
     13 O3         -4.9409    0.2823    0.9642 O.2       1 <0>        -0.5241
     14 C8         -5.9592    2.3679    0.5365 C.3       1 <0>        -0.1530
     15 C9         -7.1843    1.6856    1.1482 C.3       1 <0>        -0.1138
     16 C10        -8.3606    2.6639    1.1591 C.3       1 <0>        -0.0166
     17 H2         -8.0684    3.5777    1.6765 H         1 <0>         0.1401
     18 C11        -9.5303    2.0352    1.8717 C.2       1 <0>         0.4589
     19 O4        -10.4312    1.5420    1.2353 O.co2     1 <0>        -0.6183
     20 H3         -3.7661   -1.5322   -0.2887 H         1 <0>         0.0643
     21 H4         -4.6948   -0.2609   -1.1192 H         1 <0>         0.0521
     22 H5         -3.8641   -1.5187   -2.0659 H         1 <0>         0.0503
     23 H6         -2.6016    0.6148   -2.1193 H         1 <0>         0.0686
     24 H7         -1.6729   -0.6565   -1.2888 H         1 <0>         0.0836
     25 H8          0.0021   -0.0041    0.0020 H         1 <0>         0.4104
     26 H9          1.2883    2.3477   -0.8877 H         1 <0>         0.0753
     27 H10         1.3053    2.3381    0.8922 H         1 <0>         0.0754
     28 H11        -3.4961    2.6868   -0.3218 H         1 <0>         0.4088
     29 H12        -5.6974    3.2443    1.1295 H         1 <0>         0.1085
     30 H13        -6.1861    2.6747   -0.4846 H         1 <0>         0.0834
     31 H14        -7.4461    0.8093    0.5552 H         1 <0>         0.0922
     32 H15        -6.9574    1.3788    2.1693 H         1 <0>         0.1207
     33 H16        -9.0189    2.1532   -0.7235 H         1 <0>         0.4351
     34 H17        -9.4761    3.6782   -0.2428 H         1 <0>         0.4326
     35 O5          3.6654    1.2165   -0.0264 O.co2     1 <0>        -0.7542
     36 O6         -9.5713    2.0233    3.2133 O.co2     1 <0>        -0.7010
     37 N3         -8.7217    2.9938   -0.2309 N.4       1 <0>        -0.6274
     38 H18        -7.9029    3.3896   -0.7075 H         1 <0>         0.4193
@<TRIPOS>BOND
     1    1    2 1
     2    1   20 1
     3    1   21 1
     4    1   22 1
     5    2    3 1
     6    2   23 1
     7    2   24 1
     8    3    4 1
     9    3    5 1
    10    3   11 1
    11    5    6 2
    12    5    7 am
    13    7    8 1
    14    7   25 1
    15    8    9 1
    16    8   26 1
    17    8   27 1
    18    9   10 2
    19    9   35 1
    20   11   12 am
    21   11   28 1
    22   12   13 2
    23   12   14 1
    24   14   15 1
    25   14   29 1
    26   14   30 1
    27   15   16 1
    28   15   31 1
    29   15   32 1
    30   16   17 1
    31   16   18 1
    32   16   37 1
    33   18   19 2
    34   18   36 1
    35   33   37 1
    36   34   37 1
    37   37   38 1
@<TRIPOS>MOLECULE
ZINC37457171
   45    45     0     0     0
SMALL
USER_CHARGES

@<TRIPOS>ATOM
      1 C1          0.2313   -0.5322   -1.7379 C.3       1 <0>        -0.1483
      2 C2         -0.0840   -0.0272   -0.3285 C.3       1 <0>        -0.0975
      3 C3         -0.0888    1.5028   -0.3242 C.3       1 <0>        -0.1319
      4 C4         -1.4586   -0.5427    0.1023 C.3       1 <0>         0.1511
      5 H1         -1.7271   -0.1026    1.0627 H         1 <0>         0.0990
      6 C5         -1.4142   -2.0434    0.2323 C.2       1 <0>         0.5192
      7 O1         -1.8768   -2.7420   -0.6445 O.2       1 <0>        -0.5116
      8 N1         -0.8603   -2.6092    1.3230 N.am      1 <0>        -0.6949
      9 C6         -0.9163   -4.0620    1.5029 C.3       1 <0>         0.1172
     10 C7         -2.3518   -4.5071    1.5773 C.3       1 <0>        -0.0981
     11 C8         -3.2906   -3.3897    2.0711 C.3       1 <0>        -0.1062
     12 C9         -2.6940   -2.5806    3.2386 C.3       1 <0>        -0.1201
     13 C10        -1.9987   -3.4534    4.2480 C.3       1 <0>        -0.1139
     14 C11        -0.4979   -3.5091    3.8962 C.3       1 <0>        -0.1143
     15 C12        -0.2146   -4.4483    2.8211 C.3       1 <0>        -0.1056
     16 C13        -0.2306   -4.7422    0.3462 C.2       1 <0>         0.5034
     17 O2          0.2611   -4.0757   -0.5485 O.co2     1 <0>        -0.6704
     18 O3         -0.1675   -5.9591    0.3050 O.co2     1 <0>        -0.7026
     19 N2         -2.4572   -0.1689   -0.9024 N.am      1 <0>        -0.7196
     20 C14        -3.0405    1.0451   -0.8536 C.2       1 <0>         0.7076
     21 O4         -2.7380    1.8301    0.0242 O.2       1 <0>        -0.5961
     22 N3         -3.9592    1.3889   -1.7779 N.am      1 <0>        -0.8706
     23 H2          1.2106   -0.1649   -2.0448 H         1 <0>         0.0478
     24 H3          0.2347   -1.6222   -1.7410 H         1 <0>         0.0815
     25 H4         -0.5267   -0.1693   -2.4320 H         1 <0>         0.0470
     26 H5          0.6740   -0.3901    0.3656 H         1 <0>         0.0789
     27 H6         -0.7361    1.8664   -1.1223 H         1 <0>         0.0513
     28 H7         -0.4590    1.8623    0.6359 H         1 <0>         0.0617
     29 H8          0.9252    1.8698   -0.4831 H         1 <0>         0.0440
     30 H9         -0.4245   -2.0545    1.9887 H         1 <0>         0.3844
     31 H10        -2.6740   -4.8260    0.5861 H         1 <0>         0.0638
     32 H11        -2.4234   -5.3547    2.2589 H         1 <0>         0.0570
     33 H12        -3.4965   -2.7119    1.2427 H         1 <0>         0.0529
     34 H13        -4.2292   -3.8378    2.3974 H         1 <0>         0.0468
     35 H14        -1.9774   -1.8625    2.8401 H         1 <0>         0.0655
     36 H15        -3.4963   -2.0360    3.7365 H         1 <0>         0.0460
     37 H16        -2.1256   -3.0324    5.2453 H         1 <0>         0.0556
     38 H17        -2.4200   -4.4582    4.2153 H         1 <0>         0.0648
     39 H18        -0.1695   -2.5152    3.5924 H         1 <0>         0.0537
     40 H19         0.0615   -3.8081    4.7826 H         1 <0>         0.0566
     41 H20        -0.5500   -5.4408    3.1218 H         1 <0>         0.0718
     42 H21         0.8619   -4.4776    2.6525 H         1 <0>         0.0585
     43 H22        -2.6986   -0.7952   -1.6027 H         1 <0>         0.4063
     44 H23        -4.2006    0.7626   -2.4782 H         1 <0>         0.3965
     45 H24        -4.3790    2.2627   -1.7428 H         1 <0>         0.4117
@<TRIPOS>BOND
     1    1    2 1
     2    1   23 1
     3    1   24 1
     4    1   25 1
     5    2    3 1
     6    2    4 1
     7    2   26 1
     8    3   27 1
     9    3   28 1
    10    3   29 1
    11    4    5 1
    12    4    6 1
    13    4   19 1
    14    6    7 2
    15    6    8 am
    16    8    9 1
    17    8   30 1
    18    9   15 1
    19    9   10 1
    20    9   16 1
    21   10   11 1
    22   10   31 1
    23   10   32 1
    24   11   12 1
    25   11   33 1
    26   11   34 1
    27   12   13 1
    28   12   35 1
    29   12   36 1
    30   13   14 1
    31   13   37 1
    32   13   38 1
    33   14   15 1
    34   14   39 1
    35   14   40 1
    36   15   41 1
    37   15   42 1
    38   16   17 2
    39   16   18 1
    40   19   20 am
    41   19   43 1
    42   20   21 2
    43   20   22 am
    44   22   44 1
    45   22   45 1
@<TRIPOS>MOLECULE
ZINC40578928
   33    32     0     0     0
SMALL
USER_CHARGES

@<TRIPOS>ATOM
      1 C1         -0.0187    1.5258    0.0104 C.3       1 <0>        -0.1413
      2 C2          0.0021   -0.0041    0.0020 C.3       1 <0>        -0.0831
      3 C3          0.7182   -0.4975   -1.2568 C.3       1 <0>        -0.1455
      4 C4          0.7421   -0.5109    1.2415 C.3       1 <0>         0.0913
      5 H1          0.8346   -1.5958    1.1912 H         1 <0>         0.0803
      6 C5          2.1149    0.1084    1.2952 C.2       1 <0>         0.4963
      7 O1          2.3764    0.9381    2.1495 O.co2     1 <0>        -0.6896
      8 O2          2.9641   -0.2203    0.4845 O.co2     1 <0>        -0.6941
      9 N1         -0.0083   -0.1401    2.4439 N.am      1 <0>        -0.7085
     10 C6          0.1312   -0.8607    3.5743 C.2       1 <0>         0.7068
     11 O3          0.8799   -1.8185    3.5962 O.2       1 <0>        -0.5904
     12 N2         -0.5591   -0.5195    4.6804 N.am      1 <0>        -0.7486
     13 C7         -0.4074   -1.3028    5.9092 C.3       1 <0>         0.1555
     14 C8         -1.2940   -0.7086    7.0054 C.3       1 <0>        -0.6411
     15 S1         -1.1062   -1.6784    8.5269 S.o2      1 <0>         2.6268
     16 O4         -1.6546   -2.9773    8.3501 O.2       1 <0>        -0.9580
     17 O5          0.2018   -1.5102    9.0562 O.2       1 <0>        -0.9550
     18 N3         -2.1043   -0.9442    9.6255 N.pl3     1 <0>        -1.2512
     19 H2          1.0039    1.9031    0.0027 H         1 <0>         0.0662
     20 H3         -0.5459    1.8868   -0.8726 H         1 <0>         0.0458
     21 H4         -0.5289    1.8773    0.9072 H         1 <0>         0.0446
     22 H5         -1.0205   -0.3814    0.0098 H         1 <0>         0.0570
     23 H6          1.7408   -0.1202   -1.2645 H         1 <0>         0.0881
     24 H7          0.7330   -1.5874   -1.2628 H         1 <0>         0.0477
     25 H8          0.1910   -0.1364   -2.1398 H         1 <0>         0.0410
     26 H9         -0.6055    0.6240    2.4265 H         1 <0>         0.3859
     27 H10        -1.1563    0.2446    4.6630 H         1 <0>         0.3939
     28 H11        -0.7043   -2.3346    5.7213 H         1 <0>         0.0803
     29 H12         0.6339   -1.2770    6.2302 H         1 <0>         0.0823
     30 H13        -0.9971    0.3233    7.1933 H         1 <0>         0.1427
     31 H14        -2.3353   -0.7343    6.6844 H         1 <0>         0.1408
     32 H15        -2.6212   -0.1654    9.3664 H         1 <0>         0.4127
     33 H16        -2.1720   -1.2929   10.5281 H         1 <0>         0.4205
@<TRIPOS>BOND
     1    1    2 1
     2    1   19 1
     3    1   20 1
     4    1   21 1
     5    2    3 1
     6    2    4 1
     7    2   22 1
     8    3   23 1
     9    3   24 1
    10    3   25 1
    11    4    5 1
    12    4    6 1
    13    4    9 1
    14    6    7 2
    15    6    8 1
    16    9   10 am
    17    9   26 1
    18   10   11 2
    19   10   12 am
    20   12   13 1
    21   12   27 1
    22   13   14 1
    23   13   28 1
    24   13   29 1
    25   14   15 1
    26   14   30 1
    27   14   31 1
    28   15   16 2
    29   15   17 2
    30   15   18 1
    31   18   32 1
    32   18   33 1
@<TRIPOS>MOLECULE
ZINC44933208
   27    27     0     0     0
SMALL
USER_CHARGES

@<TRIPOS>ATOM
      1 C1         -0.0187    1.5258    0.0104 C.3       1 <0>        -0.1494
      2 C2          0.0021   -0.0041    0.0020 C.3       1 <0>         0.2577
      3 H1          0.5123   -0.3556   -0.8948 H         1 <0>         0.0993
      4 C3         -1.4117   -0.5257    0.0127 C.2       1 <0>         0.0384
      5 N1         -2.0675   -1.0519   -1.0114 N.2       1 <0>        -0.3743
      6 N2         -3.2447   -1.3745   -0.5961 N.2       1 <0>        -0.1925
      7 N3         -3.3481   -1.0688    0.6504 N.2       1 <0>        -0.1920
      8 N4         -2.2365   -0.5517    1.0495 N.2       1 <0>        -0.3778
      9 N5          0.7106   -0.4894    1.1889 N.am      1 <0>        -0.6759
     10 C4          2.0538   -0.5998    1.1737 C.2       1 <0>         0.5060
     11 O1          2.6762   -0.2972    0.1769 O.2       1 <0>        -0.5220
     12 C5          2.7766   -1.0949    2.3845 C.2       1 <0>         0.5118
     13 O2          2.1542   -1.3974    3.3813 O.2       1 <0>        -0.5201
     14 N6          4.1198   -1.2053    2.3692 N.am      1 <0>        -0.6964
     15 C6          4.8283   -1.6906    3.5561 C.3       1 <0>         0.1287
     16 C7          6.3095   -1.7197    3.2800 C.2       1 <0>         0.2670
     17 S1          6.8662   -1.2580    1.8539 S.2       1 <0>        -0.4122
     18 N7          7.1650   -2.1349    4.2351 N.pl3     1 <0>        -0.7733
     19 H2          1.0039    1.9031    0.0027 H         1 <0>         0.0594
     20 H3         -0.5459    1.8868   -0.8726 H         1 <0>         0.0673
     21 H4         -0.5289    1.8773    0.9072 H         1 <0>         0.0608
     22 H5          0.2131   -0.7312    1.9857 H         1 <0>         0.4179
     23 H6          4.6173   -0.9635    1.5725 H         1 <0>         0.4306
     24 H7          4.6283   -1.0253    4.3960 H         1 <0>         0.1090
     25 H8          4.4842   -2.6959    3.7990 H         1 <0>         0.1088
     26 H9          6.8273   -2.4149    5.1002 H         1 <0>         0.4012
     27 H10         8.1184   -2.1536    4.0574 H         1 <0>         0.4220
@<TRIPOS>BOND
     1    1    2 1
     2    1   19 1
     3    1   20 1
     4    1   21 1
     5    2    3 1
     6    2    4 1
     7    2    9 1
     8    4    5 1
     9    4    8 2
    10    5    6 1
    11    6    7 2
    12    7    8 1
    13    9   10 am
    14    9   22 1
    15   10   11 2
    16   10   12 1
    17   12   13 2
    18   12   14 am
    19   14   15 1
    20   14   23 1
    21   15   16 1
    22   15   24 1
    23   15   25 1
    24   16   17 2
    25   16   18 1
    26   18   26 1
    27   18   27 1
@<TRIPOS>MOLECULE
ZINC50421328
   35    35     0     0     0
SMALL
USER_CHARGES

@<TRIPOS>ATOM
      1 C1         -0.0178    1.4608    0.0101 C.3       1 <0>         0.0695
      2 N1          0.0021   -0.0041    0.0020 N.pl3     1 <0>        -0.4716
      3 C2          0.0087   -0.8131   -1.0848 C.2       1 <0>         0.1497
      4 N2          0.0272   -2.0444   -0.6522 N.2       1 <0>        -0.2968
      5 N3          0.0324   -2.0514    0.6337 N.2       1 <0>        -0.2702
      6 C3          0.0235   -0.8248    1.0798 C.2       1 <0>         0.1629
      7 C4          0.0319   -0.4002    2.5258 C.3       1 <0>         0.2321
      8 N4         -1.3464   -0.2810    3.0078 N.am      1 <0>        -0.7511
      9 C5         -1.5852    0.0891    4.2815 C.2       1 <0>         0.7142
     10 O1         -0.6568    0.3239    5.0306 O.2       1 <0>        -0.5892
     11 N5         -2.8532    0.1988    4.7249 N.am      1 <0>        -0.7087
     12 C6         -3.1129    0.6010    6.1095 C.3       1 <0>         0.0927
     13 H1         -2.3580    1.3206    6.4264 H         1 <0>         0.0842
     14 C7         -4.4992    1.2415    6.2031 C.3       1 <0>        -0.0929
     15 C8         -4.5166    2.5401    5.3943 C.3       1 <0>        -0.1387
     16 C9         -5.8821    3.1710    5.4865 C.2       1 <0>         0.5138
     17 O2         -6.7553    2.6348    6.1352 O.2       1 <0>        -0.5372
     18 N6         -6.1329    4.3312    4.8480 N.am      1 <0>        -0.8635
     19 C10        -3.0581   -0.6110    7.0034 C.2       1 <0>         0.4890
     20 O3         -2.8239   -1.7090    6.5280 O.co2     1 <0>        -0.6830
     21 O4         -3.2480   -0.4936    8.2020 O.co2     1 <0>        -0.6976
     22 H2          1.0048    1.8381    0.0023 H         1 <0>         0.0849
     23 H3         -0.5450    1.8219   -0.8730 H         1 <0>         0.0933
     24 H4         -0.5280    1.8123    0.9069 H         1 <0>         0.0950
     25 H5         -0.0002   -0.4977   -2.1177 H         1 <0>         0.2195
     26 H6          0.5615   -1.1449    3.1200 H         1 <0>         0.1023
     27 H7          0.5339    0.5628    2.6187 H         1 <0>         0.0826
     28 H8         -2.0871   -0.4684    2.4101 H         1 <0>         0.3930
     29 H9         -3.5939    0.0114    4.1273 H         1 <0>         0.3858
     30 H10        -5.2447    0.5543    5.8031 H         1 <0>         0.0679
     31 H11        -4.7288    1.4599    7.2460 H         1 <0>         0.0918
     32 H12        -3.7711    3.2274    5.7943 H         1 <0>         0.0932
     33 H13        -4.2870    2.3217    4.3514 H         1 <0>         0.0884
     34 H14        -5.4345    4.7600    4.3291 H         1 <0>         0.3987
     35 H15        -7.0118    4.7373    4.9073 H         1 <0>         0.3963
@<TRIPOS>BOND
     1    1    2 1
     2    1   22 1
     3    1   23 1
     4    1   24 1
     5    2    6 1
     6    2    3 1
     7    3    4 2
     8    3   25 1
     9    4    5 1
    10    5    6 2
    11    6    7 1
    12    7    8 1
    13    7   26 1
    14    7   27 1
    15    8    9 am
    16    8   28 1
    17    9   10 2
    18    9   11 am
    19   11   12 1
    20   11   29 1
    21   12   13 1
    22   12   14 1
    23   12   19 1
    24   14   15 1
    25   14   30 1
    26   14   31 1
    27   15   16 1
    28   15   32 1
    29   15   33 1
    30   16   17 2
    31   16   18 am
    32   18   34 1
    33   18   35 1
    34   19   20 2
    35   19   21 1
@<TRIPOS>MOLECULE
ZINC05369015
   23    22     0     0     0
SMALL
USER_CHARGES
2-[3-(carboxymethylsulfanyl)propylsulfanyl]acetic acid
@<TRIPOS>ATOM
      1 C1          4.2758    6.0343   -0.0064 C.3       1 <0>        -0.0782
      2 C2          2.8645    5.4433    0.0039 C.3       1 <0>        -0.1027
      3 S1          2.9673    3.6322   -0.0068 S.3       1 <0>        -0.2163
      4 C3          1.2350    3.0943    0.0069 C.3       1 <0>        -0.1258
      5 C4          1.1765    1.5884   -0.0006 C.2       1 <0>         0.4798
      6 O1          2.1986    0.9442   -0.0139 O.co2     1 <0>        -0.6134
      7 C5          4.1891    7.5618    0.0027 C.3       1 <0>        -0.1027
      8 S2          5.8622    8.2625   -0.0095 S.3       1 <0>        -0.2163
      9 C6          5.5873   10.0555    0.0027 C.3       1 <0>        -0.1257
     10 C7          6.9154   10.7674   -0.0061 C.2       1 <0>         0.4797
     11 O2          7.9422   10.1306   -0.0194 O.co2     1 <0>        -0.6135
     12 H1          4.8178    5.6959    0.8767 H         1 <0>         0.0789
     13 H2          4.8008    5.7054   -0.9032 H         1 <0>         0.0789
     14 H3          2.3225    5.7817   -0.8791 H         1 <0>         0.0720
     15 H4          2.3395    5.7721    0.9008 H         1 <0>         0.0720
     16 H5          0.7271    3.4820   -0.8762 H         1 <0>         0.0798
     17 H6          0.7441    3.4725    0.9036 H         1 <0>         0.0798
     18 H7          3.6470    7.9002   -0.8804 H         1 <0>         0.0720
     19 H8          3.6640    7.8906    0.8995 H         1 <0>         0.0720
     20 H9          5.0158   10.3414   -0.8803 H         1 <0>         0.0799
     21 H10         5.0328   10.3319    0.8995 H         1 <0>         0.0799
     22 O3         -0.0110    0.9628    0.0073 O.co2     1 <0>        -0.7651
     23 O4          6.9578   12.1090    0.0007 O.co2     1 <0>        -0.7651
@<TRIPOS>BOND
     1    1    2 1
     2    1    7 1
     3    1   12 1
     4    1   13 1
     5    2    3 1
     6    2   14 1
     7    2   15 1
     8    3    4 1
     9    4    5 1
    10    4   16 1
    11    4   17 1
    12    5    6 2
    13    5   22 1
    14    7    8 1
    15    7   18 1
    16    7   19 1
    17    8    9 1
    18    9   10 1
    19    9   20 1
    20    9   21 1
    21   10   11 2
    22   10   23 1
@<TRIPOS>MOLECULE
ZINC13772024
   26    26     0     0     0
SMALL
USER_CHARGES
(1R,2R,3S,6S)-3,6-dimethylcyclohex-4-ene-1,2-dicarboxylic acid
@<TRIPOS>ATOM
      1 C1         -0.0187    1.5258    0.0104 C.3       1 <0>        -0.1418
      2 C2          0.0021   -0.0041    0.0020 C.3       1 <0>        -0.0429
      3 H1          0.5169   -0.3535   -0.8929 H         1 <0>         0.0621
      4 C3          0.7283   -0.4984    1.2187 C.2       1 <0>        -0.1513
      5 C4          0.3307   -1.4919    1.9469 C.2       1 <0>        -0.1513
      6 C5         -0.9172   -2.2821    1.6820 C.3       1 <0>        -0.0429
      7 H2         -1.6960   -1.9720    2.3786 H         1 <0>         0.0621
      8 C6         -1.3980   -2.0433    0.2490 C.3       1 <0>        -0.1002
      9 H3         -0.7120   -2.5192   -0.4518 H         1 <0>         0.0576
     10 C7         -1.4346   -0.5308   -0.0045 C.3       1 <0>        -0.0998
     11 H4         -2.0079   -0.0412    0.7828 H         1 <0>         0.0575
     12 C8         -2.0686   -0.2567   -1.3439 C.2       1 <0>         0.4842
     13 O1         -2.4707   -1.1732   -2.0208 O.co2     1 <0>        -0.6087
     14 C9         -2.7797   -2.6195    0.0756 C.2       1 <0>         0.4840
     15 O2         -3.6987   -1.9011   -0.2394 O.co2     1 <0>        -0.6087
     16 C10        -0.6256   -3.7713    1.8775 C.3       1 <0>        -0.1418
     17 H5          1.0039    1.9031    0.0027 H         1 <0>         0.0237
     18 H6         -0.5459    1.8868   -0.8726 H         1 <0>         0.0987
     19 H7         -0.5289    1.8773    0.9072 H         1 <0>         0.0368
     20 H8          1.6393    0.0064    1.5046 H         1 <0>         0.0860
     21 H9          0.9348   -1.7696    2.7980 H         1 <0>         0.0860
     22 H10        -0.2946   -3.9454    2.9013 H         1 <0>         0.0237
     23 H11        -1.5309   -4.3471    1.6855 H         1 <0>         0.0987
     24 H12         0.1566   -4.0824    1.1850 H         1 <0>         0.0368
     25 O3         -2.1867    1.0056   -1.7848 O.co2     1 <0>        -0.8043
     26 O4         -2.9894   -3.9308    0.2710 O.co2     1 <0>        -0.8043
@<TRIPOS>BOND
     1    1    2 1
     2    1   17 1
     3    1   18 1
     4    1   19 1
     5    2    3 1
     6    2   10 1
     7    2    4 1
     8    4    5 2
     9    4   20 1
    10    5    6 1
    11    5   21 1
    12    6    7 1
    13    6    8 1
    14    6   16 1
    15    8    9 1
    16    8   10 1
    17    8   14 1
    18   10   11 1
    19   10   12 1
    20   12   13 2
    21   12   25 1
    22   14   15 2
    23   14   26 1
    24   16   22 1
    25   16   23 1
    26   16   24 1
@<TRIPOS>MOLECULE
ZINC20157030
   18    17     0     0     0
SMALL
USER_CHARGES
(2R)-2-(hydroxyphosphonoylmethyl)butanedioic acid
@<TRIPOS>ATOM
      1 C1          0.5460    3.6251    1.2656 C.3       1 <0>        -0.1232
      2 C2          1.2350    3.0943    0.0069 C.3       1 <0>        -0.1048
      3 H1          0.7194    3.4710   -0.8888 H         1 <0>         0.0760
      4 C3          2.6961    3.5480   -0.0046 C.3       1 <0>        -0.7460
      5 P1          3.3925    3.3123   -1.6728 P.3       1 <0>         2.4801
      6 H2          3.3475    2.3099   -2.1235 H         1 <0>        -0.5268
      7 O1          2.6194    4.1136   -2.6479 O.2       1 <0>        -1.1598
      8 O2          4.9300    3.7898   -1.6849 O.3       1 <0>        -1.1941
      9 C4          1.1765    1.5884   -0.0006 C.2       1 <0>         0.4610
     10 O3          2.1986    0.9442   -0.0139 O.co2     1 <0>        -0.6869
     11 O4         -0.0110    0.9628    0.0073 O.co2     1 <0>        -0.7242
     12 C5         -0.9209    3.2833    1.2174 C.2       1 <0>         0.4529
     13 O5         -1.3693    2.6773    0.2732 O.co2     1 <0>        -0.5666
     14 O6         -1.7294    3.6521    2.2235 O.co2     1 <0>        -0.8361
     15 H3          1.0009    3.1640    2.1547 H         1 <0>         0.0375
     16 H4          0.6665    4.7173    1.3167 H         1 <0>         0.0377
     17 H5          2.7518    4.6120    0.2690 H         1 <0>         0.0612
     18 H6          3.2707    2.9525    0.7201 H         1 <0>         0.0620
@<TRIPOS>BOND
     1    1    2 1
     2    1   12 1
     3    1   15 1
     4    1   16 1
     5    2    3 1
     6    2    4 1
     7    2    9 1
     8    4    5 1
     9    4   17 1
    10    4   18 1
    11    5    6 1
    12    5    7 2
    13    5    8 1
    14    9   10 2
    15    9   11 1
    16   12   13 2
    17   12   14 1
@<TRIPOS>MOLECULE
ZINC19789584
   22    23     0     0     0
SMALL
USER_CHARGES

@<TRIPOS>ATOM
      1 C1         -0.0169    1.3969    0.0097 C.ar      1 <0>        -0.0614
      2 C2          1.1565    2.1160    0.0024 C.ar      1 <0>        -0.1198
      3 C3          2.3830    1.4517   -0.0122 C.ar      1 <0>         0.1255
      4 C4          2.4043    0.0362   -0.0099 C.ar      1 <0>        -0.1871
      5 C5          1.2212   -0.6866   -0.0079 C.ar      1 <0>        -0.0154
      6 C6          0.0021   -0.0041    0.0020 C.ar      1 <0>        -0.1495
      7 C7         -1.2642   -0.7579    0.0043 C.2       1 <0>         0.5268
      8 O1         -2.3316   -0.1606    0.0129 O.co2     1 <0>        -0.6942
      9 O2         -1.2478   -1.9810   -0.0024 O.co2     1 <0>        -0.6875
     10 C8          3.7209   -0.6269    0.0009 C.2       1 <0>         0.4273
     11 O3          3.8833   -1.7405   -0.4515 O.2       1 <0>        -0.4702
     12 C9          4.8608    0.1665    0.6120 C.3       1 <0>        -0.2345
     13 H1          5.8116   -0.2066    0.2314 H         1 <0>         0.1133
     14 C10         4.6969    1.6142    0.2311 C.2       1 <0>         0.2020
     15 N1          3.5562    2.1422   -0.0329 N.2       1 <0>        -0.5034
     16 C11         4.8268    0.0273    2.1122 C.2       1 <0>         0.5250
     17 O4          5.8665   -0.0988    2.7364 O.co2     1 <0>        -0.6813
     18 O5          3.7596    0.0408    2.7016 O.co2     1 <0>        -0.6595
     19 H2         -0.9627    1.9181    0.0261 H         1 <0>         0.1309
     20 H3          1.1277    3.1956    0.0075 H         1 <0>         0.1240
     21 H4          1.2417   -1.7664   -0.0146 H         1 <0>         0.1323
     22 H5          5.5780    2.2364    0.1776 H         1 <0>         0.1568
@<TRIPOS>BOND
     1    1    6 ar
     2    1    2 ar
     3    1   19 1
     4    2    3 ar
     5    2   20 1
     6    3   15 1
     7    3    4 ar
     8    4    5 ar
     9    4   10 1
    10    5    6 ar
    11    5   21 1
    12    6    7 1
    13    7    8 2
    14    7    9 1
    15   10   11 2
    16   10   12 1
    17   12   13 1
    18   12   14 1
    19   12   16 1
    20   14   15 2
    21   14   22 1
    22   16   17 2
    23   16   18 1
@<TRIPOS>MOLECULE
ZINC16900470
   33    34     0     0     0
SMALL
USER_CHARGES

@<TRIPOS>ATOM
      1 C1          0.7371    1.0361   -0.3860 C.3       1 <0>        -0.1342
      2 C2          0.4725   -0.4695   -0.3241 C.3       1 <0>        -0.0996
      3 S1         -1.3070   -0.7633   -0.1303 S.3       1 <0>        -0.2026
      4 C3         -1.4499   -2.5708   -0.0744 C.3       1 <0>        -0.1060
      5 H1         -0.9762   -3.0191   -0.9477 H         1 <0>         0.1374
      6 C4         -2.9296   -2.9957    0.0186 C.3       1 <0>        -0.1274
      7 C5         -3.0044   -3.7339    1.3373 C.2       1 <0>         0.5239
      8 O1         -4.0025   -4.2406    1.8027 O.2       1 <0>        -0.4617
      9 N1         -1.7936   -3.7393    1.9084 N.am      1 <0>        -0.5053
     10 C6         -0.8405   -3.1140    1.1997 C.2       1 <0>         0.5312
     11 O2          0.3215   -3.0007    1.5261 O.2       1 <0>        -0.4599
     12 C7         -1.5405   -4.3501    3.1454 C.ar      1 <0>         0.0483
     13 C8         -1.2161   -3.5727    4.2467 C.ar      1 <0>        -0.0617
     14 C9         -0.9627   -4.1773    5.4810 C.ar      1 <0>        -0.1504
     15 C10        -1.0370   -5.5642    5.6040 C.ar      1 <0>        -0.0277
     16 C11        -1.3640   -6.3422    4.4941 C.ar      1 <0>        -0.1509
     17 C12        -1.6209   -5.7291    3.2647 C.ar      1 <0>        -0.0628
     18 C13        -1.4440   -7.8105    4.6186 C.2       1 <0>         0.5297
     19 O3         -1.2234   -8.3457    5.6957 O.co2     1 <0>        -0.6851
     20 O4         -1.7309   -8.4919    3.6445 O.co2     1 <0>        -0.6992
     21 C14        -0.6166   -3.3490    6.6522 C.2       1 <0>         0.5294
     22 O5         -0.5513   -2.1328    6.5432 O.co2     1 <0>        -0.6979
     23 O6         -0.3950   -3.8789    7.7319 O.co2     1 <0>        -0.6857
     24 H2          1.8064    1.2126   -0.5024 H         1 <0>         0.0721
     25 H3          0.2037    1.4642   -1.2347 H         1 <0>         0.0609
     26 H4          0.3898    1.5042    0.5351 H         1 <0>         0.0667
     27 H5          0.8199   -0.9377   -1.2451 H         1 <0>         0.0825
     28 H6          1.0060   -0.8976    0.5246 H         1 <0>         0.0996
     29 H7         -3.5798   -2.1209    0.0312 H         1 <0>         0.1265
     30 H8         -3.1912   -3.6575   -0.8070 H         1 <0>         0.1306
     31 H9         -1.1588   -2.4986    4.1505 H         1 <0>         0.1210
     32 H10        -0.8414   -6.0346    6.5564 H         1 <0>         0.1380
     33 H11        -1.8786   -6.3306    2.4056 H         1 <0>         0.1202
@<TRIPOS>BOND
     1    1    2 1
     2    1   24 1
     3    1   25 1
     4    1   26 1
     5    2    3 1
     6    2   27 1
     7    2   28 1
     8    3    4 1
     9    4    5 1
    10    4   10 1
    11    4    6 1
    12    6    7 1
    13    6   29 1
    14    6   30 1
    15    7    8 2
    16    7    9 am
    17    9   10 am
    18    9   12 1
    19   10   11 2
    20   12   17 ar
    21   12   13 ar
    22   13   14 ar
    23   13   31 1
    24   14   15 ar
    25   14   21 1
    26   15   16 ar
    27   15   32 1
    28   16   17 ar
    29   16   18 1
    30   17   33 1
    31   18   19 2
    32   18   20 1
    33   21   22 2
    34   21   23 1
@<TRIPOS>MOLECULE
ZINC02087648
   20    19     0     0     0
SMALL
USER_CHARGES
2-hydantoylaminoacetic acid
@<TRIPOS>ATOM
      1 C1         -1.2947    2.0587    0.0194 C.3       1 <0>         0.1189
      2 C2         -1.0395    3.5439    0.0262 C.2       1 <0>         0.5003
      3 O1          0.0984    3.9637    0.0231 O.2       1 <0>        -0.5578
      4 N1         -2.0757    4.4057    0.0358 N.am      1 <0>        -0.6964
      5 C3         -1.8275    5.8496    0.0425 C.3       1 <0>         0.0757
      6 C4         -3.1427    6.5852    0.0527 C.2       1 <0>         0.4587
      7 O2         -4.1808    5.9670    0.0543 O.co2     1 <0>        -0.6339
      8 N2         -0.0162    1.3436    0.0094 N.am      1 <0>        -0.7310
      9 C5          0.0021   -0.0041    0.0020 C.2       1 <0>         0.7075
     10 O3         -1.0425   -0.6263    0.0086 O.2       1 <0>        -0.5981
     11 N3          1.1783   -0.6620   -0.0127 N.am      1 <0>        -0.8673
     12 H1         -1.8669    1.7925   -0.8694 H         1 <0>         0.0982
     13 H2         -1.8585    1.7828    0.9106 H         1 <0>         0.0985
     14 H3         -2.9857    4.0700    0.0383 H         1 <0>         0.4114
     15 H4         -1.2554    6.1158    0.9312 H         1 <0>         0.0754
     16 H5         -1.2638    6.1255   -0.8487 H         1 <0>         0.0754
     17 H6          0.8172    1.8399    0.0041 H         1 <0>         0.4081
     18 H7          2.0116   -0.1656   -0.0180 H         1 <0>         0.3978
     19 H8          1.1914   -1.6319   -0.0181 H         1 <0>         0.4141
     20 O4         -3.1609    7.9274    0.0601 O.co2     1 <0>        -0.7556
@<TRIPOS>BOND
     1    1    2 1
     2    1    8 1
     3    1   12 1
     4    1   13 1
     5    2    3 2
     6    2    4 am
     7    4    5 1
     8    4   14 1
     9    5    6 1
    10    5   15 1
    11    5   16 1
    12    6    7 2
    13    6   20 1
    14    8    9 am
    15    8   17 1
    16    9   10 2
    17    9   11 am
    18   11   18 1
    19   11   19 1
@<TRIPOS>MOLECULE
ZINC37792244
   30    30     0     0     0
SMALL
USER_CHARGES

@<TRIPOS>ATOM
      1 C1         -0.0134    1.3956   -0.0062 C.ar      1 <0>        -0.0776
      2 C2          1.1788    2.0924   -0.1921 C.ar      1 <0>        -0.1251
      3 C3          2.3932    1.4047   -0.2016 C.ar      1 <0>        -0.0376
      4 C4          2.4142    0.0284   -0.0262 C.ar      1 <0>         0.1526
      5 C5          1.2286   -0.6685    0.1592 C.ar      1 <0>        -0.0653
      6 C6          0.0110    0.0135    0.1697 C.ar      1 <0>        -0.1269
      7 C7         -1.2520   -0.7298    0.3673 C.2       1 <0>         0.5686
      8 O1         -1.2301   -1.9354    0.5206 O.2       1 <0>        -0.5340
      9 N1         -2.4275   -0.0705    0.3773 N.am      1 <0>        -0.8510
     10 N2          3.6323   -0.6577   -0.0366 N.am      1 <0>        -0.6752
     11 C8          4.7424   -0.0675    0.4488 C.2       1 <0>         0.5500
     12 O2          4.6675    1.0218    0.9825 O.2       1 <0>        -0.5247
     13 C9          6.0508   -0.7448    0.3321 C.2       1 <0>        -0.2209
     14 C10         7.1571   -0.1566    0.8159 C.2       1 <0>        -0.0807
     15 C11         8.4620   -0.8321    0.6995 C.2       1 <0>         0.5035
     16 O3          8.5373   -1.9282    0.1625 O.co2     1 <0>        -0.6799
     17 O4          9.4692   -0.2965    1.1400 O.co2     1 <0>        -0.6790
     18 C12         1.1574    3.5591   -0.3796 C.2       1 <0>         0.5644
     19 O5          2.1977    4.1664   -0.5417 O.2       1 <0>        -0.5239
     20 N3         -0.0158    4.2225   -0.3708 N.am      1 <0>        -0.8523
     21 H1         -0.9540    1.9261    0.0059 H         1 <0>         0.1280
     22 H2          3.3176    1.9442   -0.3460 H         1 <0>         0.1579
     23 H3          1.2481   -1.7396    0.2955 H         1 <0>         0.1475
     24 H4         -2.4450    0.8916    0.2549 H         1 <0>         0.3995
     25 H5         -3.2560   -0.5581    0.5069 H         1 <0>         0.4066
     26 H6          3.6784   -1.5586   -0.3933 H         1 <0>         0.4179
     27 H7          6.1173   -1.7128   -0.1422 H         1 <0>         0.1381
     28 H8          7.0906    0.8114    1.2902 H         1 <0>         0.1150
     29 H9         -0.8460    3.7379   -0.2414 H         1 <0>         0.3979
     30 H10        -0.0299    5.1846   -0.4938 H         1 <0>         0.4065
@<TRIPOS>BOND
     1    1    6 ar
     2    1    2 ar
     3    1   21 1
     4    2    3 ar
     5    2   18 1
     6    3    4 ar
     7    3   22 1
     8    4    5 ar
     9    4   10 1
    10    5    6 ar
    11    5   23 1
    12    6    7 1
    13    7    8 2
    14    7    9 am
    15    9   24 1
    16    9   25 1
    17   10   11 am
    18   10   26 1
    19   11   12 2
    20   11   13 1
    21   13   14 2
    22   13   27 1
    23   14   15 1
    24   14   28 1
    25   15   16 2
    26   15   17 1
    27   18   19 2
    28   18   20 am
    29   20   29 1
    30   20   30 1
@<TRIPOS>MOLECULE
ZINC40578926
   34    33     0     0     0
SMALL
USER_CHARGES

@<TRIPOS>ATOM
      1 C1         -0.0225    1.8097    0.0120 C.3       1 <0>        -0.1205
      2 S1          0.0021   -0.0041    0.0020 S.3       1 <0>        -0.2753
      3 C2          0.9025   -0.4391    1.5155 C.3       1 <0>        -0.0732
      4 C3          0.9973   -1.9616    1.6327 C.3       1 <0>        -0.0935
      5 C4          1.7568   -2.3285    2.9093 C.3       1 <0>         0.0997
      6 H1          2.7268   -1.8313    2.9106 H         1 <0>         0.0853
      7 C5          1.9574   -3.8211    2.9630 C.2       1 <0>         0.4925
      8 O1          2.9544   -4.3204    2.4699 O.co2     1 <0>        -0.6909
      9 O2          1.1226   -4.5295    3.4996 O.co2     1 <0>        -0.6892
     10 N1          0.9853   -1.8971    4.0776 N.am      1 <0>        -0.7101
     11 C6          1.6129   -1.6409    5.2424 C.2       1 <0>         0.7032
     12 O3          2.8194   -1.7678    5.3237 O.2       1 <0>        -0.5865
     13 N2          0.9032   -1.2440    6.3172 N.am      1 <0>        -0.7479
     14 C7          1.5854   -0.9655    7.5834 C.3       1 <0>         0.1550
     15 C8          0.5579   -0.5364    8.6327 C.3       1 <0>        -0.6418
     16 S2          1.4027   -0.1915   10.2005 S.o2      1 <0>         2.6267
     17 O4          1.9270   -1.3931   10.7486 O.2       1 <0>        -0.9546
     18 O5          2.2204    0.9635   10.0721 O.2       1 <0>        -0.9578
     19 N3          0.1974    0.2579   11.2435 N.pl3     1 <0>        -1.2510
     20 H2          1.0001    2.1870    0.0043 H         1 <0>         0.0738
     21 H3         -0.5497    2.1708   -0.8711 H         1 <0>         0.0977
     22 H4         -0.5327    2.1613    0.9088 H         1 <0>         0.0723
     23 H5          1.9057   -0.0145    1.4762 H         1 <0>         0.0803
     24 H6          0.3729   -0.0403    2.3807 H         1 <0>         0.0777
     25 H7         -0.0059   -2.3862    1.6721 H         1 <0>         0.0753
     26 H8          1.5269   -2.3604    0.7675 H         1 <0>         0.0880
     27 H9          0.0228   -1.7959    4.0127 H         1 <0>         0.3886
     28 H10        -0.0594   -1.1428    6.2524 H         1 <0>         0.3950
     29 H11         2.0994   -1.8641    7.9245 H         1 <0>         0.0828
     30 H12         2.3109   -0.1653    7.4369 H         1 <0>         0.0809
     31 H13         0.0439    0.3623    8.2916 H         1 <0>         0.1409
     32 H14        -0.1676   -1.3365    8.7792 H         1 <0>         0.1431
     33 H15        -0.7230    0.2849   10.9383 H         1 <0>         0.4128
     34 H16         0.4118    0.4942   12.1595 H         1 <0>         0.4207
@<TRIPOS>BOND
     1    1    2 1
     2    1   20 1
     3    1   21 1
     4    1   22 1
     5    2    3 1
     6    3    4 1
     7    3   23 1
     8    3   24 1
     9    4    5 1
    10    4   25 1
    11    4   26 1
    12    5    6 1
    13    5    7 1
    14    5   10 1
    15    7    8 2
    16    7    9 1
    17   10   11 am
    18   10   27 1
    19   11   12 2
    20   11   13 am
    21   13   14 1
    22   13   28 1
    23   14   15 1
    24   14   29 1
    25   14   30 1
    26   15   16 1
    27   15   31 1
    28   15   32 1
    29   16   17 2
    30   16   18 2
    31   16   19 1
    32   19   33 1
    33   19   34 1
@<TRIPOS>MOLECULE
ZINC40750947
   34    33     0     0     0
SMALL
USER_CHARGES

@<TRIPOS>ATOM
      1 C1         -0.0187    1.5258    0.0104 C.3       1 <0>        -0.1085
      2 C2          0.0021   -0.0041    0.0020 C.3       1 <0>         0.0785
      3 O1         -1.3386   -0.4987    0.0122 O.3       1 <0>        -0.5757
      4 C3          1.4167    2.0553   -0.0004 C.3       1 <0>         0.0950
      5 H1          1.9696    1.6236    0.8338 H         1 <0>         0.0831
      6 C4          1.3993    3.5565    0.1316 C.2       1 <0>         0.4930
      7 O2          1.0708    4.0718    1.1866 O.co2     1 <0>        -0.6975
      8 O3          1.7138    4.2555   -0.8165 O.co2     1 <0>        -0.6855
      9 N1          2.0649    1.6835   -1.2605 N.am      1 <0>        -0.7127
     10 C5          3.4069    1.5752   -1.3217 C.2       1 <0>         0.7093
     11 O4          4.0796    1.7861   -0.3311 O.2       1 <0>        -0.5949
     12 N2          4.0032    1.2330   -2.4809 N.am      1 <0>        -0.6192
     13 C6          3.1927    0.9789   -3.6745 C.3       1 <0>         0.1207
     14 C7          3.0064    2.2835   -4.4518 C.3       1 <0>         0.0495
     15 O5          4.2720    2.7305   -4.9424 O.3       1 <0>        -0.5683
     16 C8          5.4620    1.1153   -2.5474 C.3       1 <0>         0.1413
     17 C9          5.8739   -0.3188   -2.2087 C.3       1 <0>         0.0587
     18 O6          5.3768   -1.2066   -3.2121 O.3       1 <0>        -0.5707
     19 H2         -0.5459    1.8868   -0.8726 H         1 <0>         0.0672
     20 H3         -0.5289    1.8773    0.9072 H         1 <0>         0.0882
     21 H4          0.5123   -0.3556   -0.8948 H         1 <0>         0.0412
     22 H5          0.5293   -0.3651    0.8851 H         1 <0>         0.0441
     23 H6         -1.4018   -1.4636    0.0076 H         1 <0>         0.3716
     24 H7          1.5282    1.5152   -2.0508 H         1 <0>         0.3846
     25 H8          3.6965    0.2479   -4.3069 H         1 <0>         0.0922
     26 H9          2.2185    0.5913   -3.3763 H         1 <0>         0.0791
     27 H10         2.3311    2.1136   -5.2903 H         1 <0>         0.0488
     28 H11         2.5838    3.0419   -3.7928 H         1 <0>         0.0612
     29 H12         4.2296    3.5548   -5.4462 H         1 <0>         0.3754
     30 H13         5.8010    1.3628   -3.5533 H         1 <0>         0.0879
     31 H14         5.9149    1.8019   -1.8322 H         1 <0>         0.0930
     32 H15         6.9612   -0.3852   -2.1711 H         1 <0>         0.0494
     33 H16         5.4591   -0.5967   -1.2398 H         1 <0>         0.0487
     34 H17         5.6009   -2.1352   -3.0615 H         1 <0>         0.3712
@<TRIPOS>BOND
     1    1    2 1
     2    1    4 1
     3    1   19 1
     4    1   20 1
     5    2    3 1
     6    2   21 1
     7    2   22 1
     8    3   23 1
     9    4    5 1
    10    4    6 1
    11    4    9 1
    12    6    7 2
    13    6    8 1
    14    9   10 am
    15    9   24 1
    16   10   11 2
    17   10   12 am
    18   12   13 1
    19   12   16 1
    20   13   14 1
    21   13   25 1
    22   13   26 1
    23   14   15 1
    24   14   27 1
    25   14   28 1
    26   15   29 1
    27   16   17 1
    28   16   30 1
    29   16   31 1
    30   17   18 1
    31   17   32 1
    32   17   33 1
    33   18   34 1
@<TRIPOS>MOLECULE
ZINC49238781
   40    41     0     0     0
SMALL
USER_CHARGES

@<TRIPOS>ATOM
      1 C1         -0.0187    1.5258    0.0104 C.3       1 <0>        -0.1820
      2 C2          1.3165    0.7789   -0.0063 C.3       1 <0>        -0.1730
      3 C3          0.0021   -0.0041    0.0020 C.3       1 <0>        -0.1647
      4 C4         -0.4085   -0.7090   -1.2923 C.3       1 <0>         0.2254
      5 C5         -0.3218   -2.2241   -1.0975 C.3       1 <0>        -0.1616
      6 C6          0.7690   -2.9738   -1.8649 C.3       1 <0>        -0.1691
      7 C7         -0.6953   -3.1118   -2.2864 C.3       1 <0>        -0.1734
      8 N1         -1.7839   -0.3387   -1.6350 N.am      1 <0>        -0.7427
      9 C8         -2.0246    0.7926   -2.3269 C.2       1 <0>         0.7068
     10 O1         -1.1004    1.5058   -2.6667 O.2       1 <0>        -0.5905
     11 N2         -3.2899    1.1333   -2.6422 N.am      1 <0>        -0.7121
     12 C9         -3.5516    2.3630   -3.3943 C.3       1 <0>         0.0955
     13 H1         -2.8361    3.1298   -3.0974 H         1 <0>         0.0824
     14 C10        -4.9720    2.8490   -3.0988 C.3       1 <0>        -0.0944
     15 C11        -5.0791    3.2455   -1.6250 C.3       1 <0>        -0.1382
     16 C12        -6.4781    3.7242   -1.3339 C.2       1 <0>         0.5145
     17 O2         -7.3078    3.7462   -2.2183 O.2       1 <0>        -0.5393
     18 N3         -6.8072    4.1280   -0.0909 N.am      1 <0>        -0.8629
     19 C13        -3.4111    2.0891   -4.8695 C.2       1 <0>         0.4919
     20 O3         -3.6633    0.9807   -5.3105 O.co2     1 <0>        -0.6914
     21 O4         -3.0454    2.9758   -5.6221 O.co2     1 <0>        -0.6955
     22 H2         -0.3072    2.0201    0.9381 H         1 <0>         0.0812
     23 H3         -0.3248    2.0300   -0.9061 H         1 <0>         0.1258
     24 H4          1.8888    0.7918   -0.9339 H         1 <0>         0.0930
     25 H5          1.9064    0.7818    0.9103 H         1 <0>         0.0870
     26 H6         -0.2728   -0.5162    0.9241 H         1 <0>         0.0975
     27 H7          0.2605   -0.4075   -2.0983 H         1 <0>         0.0869
     28 H8         -0.5751   -2.5852   -0.1007 H         1 <0>         0.1064
     29 H9          1.4249   -2.3876   -2.5086 H         1 <0>         0.0959
     30 H10         1.2338   -3.8282   -1.3729 H         1 <0>         0.0942
     31 H11        -1.1938   -4.0570   -2.0717 H         1 <0>         0.0938
     32 H12        -1.0027   -2.6164   -3.2074 H         1 <0>         0.1003
     33 H13        -2.5212   -0.9076   -1.3639 H         1 <0>         0.3907
     34 H14        -4.0273    0.5644   -2.3711 H         1 <0>         0.3865
     35 H15        -5.1981    3.7123   -3.7247 H         1 <0>         0.0837
     36 H16        -5.6814    2.0496   -3.3125 H         1 <0>         0.0719
     37 H17        -4.8529    2.3822   -0.9991 H         1 <0>         0.0906
     38 H18        -4.3697    4.0450   -1.4113 H         1 <0>         0.0932
     39 H19        -6.1436    4.1104    0.6164 H         1 <0>         0.3994
     40 H20        -7.7077    4.4361    0.0964 H         1 <0>         0.3962
@<TRIPOS>BOND
     1    1    3 1
     2    1    2 1
     3    1   22 1
     4    1   23 1
     5    2    3 1
     6    2   24 1
     7    2   25 1
     8    3    4 1
     9    3   26 1
    10    4    5 1
    11    4    8 1
    12    4   27 1
    13    5    7 1
    14    5    6 1
    15    5   28 1
    16    6    7 1
    17    6   29 1
    18    6   30 1
    19    7   31 1
    20    7   32 1
    21    8    9 am
    22    8   33 1
    23    9   10 2
    24    9   11 am
    25   11   12 1
    26   11   34 1
    27   12   13 1
    28   12   14 1
    29   12   19 1
    30   14   15 1
    31   14   35 1
    32   14   36 1
    33   15   16 1
    34   15   37 1
    35   15   38 1
    36   16   17 2
    37   16   18 am
    38   18   39 1
    39   18   40 1
    40   19   20 2
    41   19   21 1
@<TRIPOS>MOLECULE
ZINC02457062
   30    30     0     0     0
SMALL
USER_CHARGES
2-(4-thiocarbamoylpiperazin-1-yl)ethanesulfonic acid
@<TRIPOS>ATOM
      1 C1         -0.0025   -0.0013    0.0021 C.3       1 <0>        -0.0182
      2 C2         -0.0196    1.5310    0.0130 C.3       1 <0>         0.0824
      3 N1          1.3696    2.0138   -0.0006 N.pl3     1 <0>        -0.5949
      4 C3          2.3057    1.4681    0.9940 C.3       1 <0>         0.0730
      5 C4          2.2313   -0.0617    0.9445 C.3       1 <0>        -0.0238
      6 C5          0.7400   -1.9464    1.2381 C.3       1 <0>         0.0140
      7 C6          1.8021   -2.4403    2.2224 C.3       1 <0>        -0.7213
      8 S1          1.6854   -4.2434    2.3836 S.o2      1 <0>         2.6276
      9 O1          0.4705   -4.5995    3.0288 O.2       1 <0>        -1.0300
     10 O2          2.0702   -4.8694    1.1673 O.2       1 <0>        -1.0306
     11 C7          1.7739    2.9324   -0.9002 C.2       1 <0>         0.5724
     12 S2          0.7040    3.4543   -2.1305 S.2       1 <0>        -0.5979
     13 N2          3.0205    3.4400   -0.8312 N.pl3     1 <0>        -0.7959
     14 H1         -1.0184   -0.3773    0.1230 H         1 <0>         0.1508
     15 H2          0.4055   -0.3538   -0.9452 H         1 <0>         0.1393
     16 H3         -0.5433    1.8976   -0.8699 H         1 <0>         0.1661
     17 H4         -0.5216    1.8852    0.9133 H         1 <0>         0.1053
     18 H5          2.0272    1.8163    1.9886 H         1 <0>         0.1096
     19 H6          3.3202    1.7930    0.7631 H         1 <0>         0.1212
     20 H7          2.8354   -0.4814    1.7488 H         1 <0>         0.1558
     21 H8          2.6086   -0.4133   -0.0158 H         1 <0>         0.1383
     22 H9         -0.2500   -2.2150    1.6068 H         1 <0>         0.1402
     23 H10         0.9032   -2.4095    0.2649 H         1 <0>         0.1389
     24 H11         2.7921   -2.1718    1.8537 H         1 <0>         0.1301
     25 H12         1.6389   -1.9772    3.1956 H         1 <0>         0.1310
     26 H13         3.6502    3.0929   -0.1801 H         1 <0>         0.3966
     27 H14         3.2881    4.1524   -1.4326 H         1 <0>         0.4393
     28 N3          0.8238   -0.4749    1.1338 N.4       1 <0>        -0.3915
     29 H15         0.4686   -0.0584    2.0024 H         1 <0>         0.4264
     30 O3          2.7767   -4.6188    3.3758 O.3       1 <0>        -1.0539
@<TRIPOS>BOND
     1    1    2 1
     2    1   14 1
     3    1   15 1
     4    1   28 1
     5    2    3 1
     6    2   16 1
     7    2   17 1
     8    3    4 1
     9    3   11 1
    10    4    5 1
    11    4   18 1
    12    4   19 1
    13    5   20 1
    14    5   21 1
    15    5   28 1
    16    6    7 1
    17    6   22 1
    18    6   23 1
    19    6   28 1
    20    7    8 1
    21    7   24 1
    22    7   25 1
    23    8    9 2
    24    8   10 2
    25    8   30 1
    26   11   12 2
    27   11   13 1
    28   13   26 1
    29   13   27 1
    30   28   29 1
@<TRIPOS>MOLECULE
ZINC37594576
   33    33     0     0     0
SMALL
USER_CHARGES

@<TRIPOS>ATOM
      1 C1         -0.4055    1.5814    0.8436 C.3       1 <0>        -0.1504
      2 C2          0.9245    2.2952    1.1857 C.3       1 <0>        -0.5723
      3 S1          2.1534    1.3601    0.1868 S.o2      1 <0>         2.3894
      4 O1          3.0764    0.7279    1.0629 O.2       1 <0>        -0.9130
      5 O2          2.6382    2.1986   -0.8530 O.2       1 <0>        -0.9112
      6 C3          1.0451    0.0807   -0.5410 C.3       1 <0>        -0.6179
      7 C4         -0.1329    0.1139    0.4742 C.3       1 <0>         0.0071
      8 H1          0.1364   -0.4471    1.3691 H         1 <0>         0.1536
      9 N1         -1.3318   -0.4747   -0.1376 N.4       1 <0>        -0.3468
     10 C5         -2.4485   -0.4121    0.8148 C.3       1 <0>         0.0001
     11 C6         -2.0462   -1.1042    2.1186 C.3       1 <0>        -0.1794
     12 C7         -3.1610   -0.9693    3.1237 C.2       1 <0>         0.5267
     13 O3         -4.1772   -0.3778    2.8264 O.2       1 <0>        -0.5288
     14 N2         -3.0287   -1.5060    4.3529 N.am      1 <0>        -0.8487
     15 C8         -1.0651   -1.8761   -0.4880 C.3       1 <0>        -0.0960
     16 C9         -2.2286   -2.4285   -1.2704 C.2       1 <0>         0.4879
     17 O4         -3.1389   -1.6922   -1.6107 O.co2     1 <0>        -0.6684
     18 O5         -2.2596   -3.6116   -1.5632 O.co2     1 <0>        -0.6355
     19 H2         -1.0694    1.6199    1.7072 H         1 <0>         0.1204
     20 H3         -0.8799    2.0846    0.0010 H         1 <0>         0.1123
     21 H4          0.8922    3.3406    0.8788 H         1 <0>         0.1585
     22 H5          1.1462    2.2103    2.2496 H         1 <0>         0.1517
     23 H6          0.7137    0.3677   -1.5389 H         1 <0>         0.1623
     24 H7          1.5268   -0.8970   -0.5539 H         1 <0>         0.1664
     25 H8         -2.6950    0.6301    1.0177 H         1 <0>         0.1320
     26 H9         -3.3172   -0.9148    0.3896 H         1 <0>         0.1639
     27 H10        -1.8565   -2.1602    1.9259 H         1 <0>         0.1212
     28 H11        -1.1429   -0.6389    2.5133 H         1 <0>         0.1100
     29 H12        -2.2159   -1.9790    4.5907 H         1 <0>         0.4050
     30 H13        -3.7462   -1.4191    4.9998 H         1 <0>         0.4108
     31 H14        -0.1603   -1.9334   -1.0932 H         1 <0>         0.1301
     32 H15        -0.9303   -2.4591    0.4230 H         1 <0>         0.1261
     33 H16        -1.5715    0.0407   -0.9713 H         1 <0>         0.4330
@<TRIPOS>BOND
     1    1    7 1
     2    1    2 1
     3    1   19 1
     4    1   20 1
     5    2    3 1
     6    2   21 1
     7    2   22 1
     8    3    4 2
     9    3    5 2
    10    3    6 1
    11    6    7 1
    12    6   23 1
    13    6   24 1
    14    7    8 1
    15    7    9 1
    16    9   10 1
    17    9   15 1
    18    9   33 1
    19   10   11 1
    20   10   25 1
    21   10   26 1
    22   11   12 1
    23   11   27 1
    24   11   28 1
    25   12   13 2
    26   12   14 am
    27   14   29 1
    28   14   30 1
    29   15   16 1
    30   15   31 1
    31   15   32 1
    32   16   17 2
    33   16   18 1
@<TRIPOS>MOLECULE
ZINC45008686
   27    26     0     0     0
SMALL
USER_CHARGES

@<TRIPOS>ATOM
      1 C1         -0.0178    1.4608    0.0101 C.3       1 <0>         0.0847
      2 N1          0.0021   -0.0041    0.0020 N.am      1 <0>        -0.7350
      3 C2          0.5851   -0.6645   -1.0180 C.2       1 <0>         0.5159
      4 O1          1.0933   -0.0461   -1.9292 O.2       1 <0>        -0.5323
      5 C3          0.6055   -2.1713   -1.0263 C.3       1 <0>        -0.1559
      6 C4          1.3217   -2.6648   -2.2851 C.3       1 <0>         0.1312
      7 N2          1.3415   -4.1296   -2.2931 N.am      1 <0>        -0.7005
      8 C5          1.9245   -4.7900   -3.3131 C.2       1 <0>         0.5097
      9 O2          2.4330   -4.1713   -4.2248 O.2       1 <0>        -0.5088
     10 C6          1.9448   -6.2844   -3.3213 C.2       1 <0>         0.5185
     11 O3          1.4363   -6.9031   -2.4096 O.2       1 <0>        -0.5094
     12 N3          2.5278   -6.9448   -4.3413 N.am      1 <0>        -0.7027
     13 C7          2.5477   -8.4097   -4.3494 C.3       1 <0>         0.2204
     14 C8          3.2367   -8.8844   -5.5605 C.1       1 <0>         0.1870
     15 N4          3.7684   -9.2507   -6.4951 N.1       1 <0>        -0.3910
     16 H1          1.0048    1.8381    0.0023 H         1 <0>         0.0618
     17 H2         -0.5450    1.8219   -0.8730 H         1 <0>         0.0618
     18 H3         -0.5280    1.8123    0.9069 H         1 <0>         0.0776
     19 H4         -0.4044   -0.4986    0.7308 H         1 <0>         0.4040
     20 H5          1.1327   -2.5324   -0.1432 H         1 <0>         0.1056
     21 H6         -0.4171   -2.5486   -1.0185 H         1 <0>         0.1056
     22 H7          0.7945   -2.3037   -3.1681 H         1 <0>         0.0855
     23 H8          2.3442   -2.2875   -2.2928 H         1 <0>         0.0855
     24 H9          0.9351   -4.6242   -1.5644 H         1 <0>         0.4140
     25 H10         2.9342   -6.4503   -5.0701 H         1 <0>         0.4211
     26 H11         3.0749   -8.7708   -3.4663 H         1 <0>         0.1231
     27 H12         1.5251   -8.7870   -4.3417 H         1 <0>         0.1230
@<TRIPOS>BOND
     1    1    2 1
     2    1   16 1
     3    1   17 1
     4    1   18 1
     5    2    3 am
     6    2   19 1
     7    3    4 2
     8    3    5 1
     9    5    6 1
    10    5   20 1
    11    5   21 1
    12    6    7 1
    13    6   22 1
    14    6   23 1
    15    7    8 am
    16    7   24 1
    17    8    9 2
    18    8   10 1
    19   10   11 2
    20   10   12 am
    21   12   13 1
    22   12   25 1
    23   13   14 1
    24   13   26 1
    25   13   27 1
    26   14   15 3
@<TRIPOS>MOLECULE
ZINC52787416
   36    36     0     0     0
SMALL
USER_CHARGES

@<TRIPOS>ATOM
      1 C1         -0.0230    1.4369   -0.0094 C.3       1 <0>         0.0320
      2 O1         -0.0031    0.0080   -0.0115 O.3       1 <0>        -0.3907
      3 C2          0.6483   -0.5625   -1.1483 C.3       1 <0>         0.0663
      4 C3          0.6101   -2.0885   -1.0454 C.3       1 <0>        -0.1116
      5 C4          1.3075   -2.6993   -2.2626 C.3       1 <0>         0.0936
      6 H1          0.8513   -2.3136   -3.1743 H         1 <0>         0.0874
      7 C5          1.1631   -4.1989   -2.2242 C.2       1 <0>         0.4938
      8 O2          0.2068   -4.7332   -2.7595 O.co2     1 <0>        -0.6810
      9 O3          2.0026   -4.8779   -1.6579 O.co2     1 <0>        -0.6927
     10 N1          2.7288   -2.3448   -2.2400 N.am      1 <0>        -0.7012
     11 C6          3.4337   -2.3127   -3.3882 C.2       1 <0>         0.7061
     12 O4          2.9150   -2.6648   -4.4300 O.2       1 <0>        -0.5637
     13 N2          4.7135   -1.8903   -3.3818 N.am      1 <0>        -0.6509
     14 C7          5.3992   -1.5739   -2.1193 C.3       1 <0>         0.0876
     15 C8          6.7418   -2.3121   -2.0976 C.3       1 <0>        -0.0222
     16 N3          7.5060   -1.9716   -3.3042 N.4       1 <0>        -0.5019
     17 C9          6.8039   -2.4636   -4.4963 C.3       1 <0>        -0.0223
     18 C10         5.4663   -1.7383   -4.6365 C.3       1 <0>         0.1065
     19 H2          0.9994    1.8146   -0.0173 H         1 <0>         0.0359
     20 H3         -0.5493    1.7942   -0.8945 H         1 <0>         0.0404
     21 H4         -0.5345    1.7918    0.8854 H         1 <0>         0.0855
     22 H5          0.1360   -0.2466   -2.0571 H         1 <0>         0.0492
     23 H6          1.6847   -0.2263   -1.1799 H         1 <0>         0.0400
     24 H7          1.1224   -2.4044   -0.1367 H         1 <0>         0.0747
     25 H8         -0.4263   -2.4247   -1.0138 H         1 <0>         0.0922
     26 H9          3.1625   -2.1332   -1.3985 H         1 <0>         0.3870
     27 H10         5.5709   -0.4994   -2.0550 H         1 <0>         0.0924
     28 H11         4.7877   -1.9011   -1.2784 H         1 <0>         0.1231
     29 H12         7.3060   -2.0142   -1.2138 H         1 <0>         0.1442
     30 H13         6.5649   -3.3873   -2.0707 H         1 <0>         0.1388
     31 H14         7.6077   -0.9695   -3.3649 H         1 <0>         0.4255
     32 H15         7.4140   -2.2774   -5.3802 H         1 <0>         0.1439
     33 H16         6.6252   -3.5342   -4.3969 H         1 <0>         0.1366
     34 H17         4.8991   -2.1741   -5.4590 H         1 <0>         0.1369
     35 H18         5.6448   -0.6807   -4.8307 H         1 <0>         0.0878
     36 H19         8.4194   -2.3974   -3.2536 H         1 <0>         0.4310
@<TRIPOS>BOND
     1    1    2 1
     2    1   19 1
     3    1   20 1
     4    1   21 1
     5    2    3 1
     6    3    4 1
     7    3   22 1
     8    3   23 1
     9    4    5 1
    10    4   24 1
    11    4   25 1
    12    5    6 1
    13    5    7 1
    14    5   10 1
    15    7    8 2
    16    7    9 1
    17   10   11 am
    18   10   26 1
    19   11   12 2
    20   11   13 am
    21   13   18 1
    22   13   14 1
    23   14   15 1
    24   14   27 1
    25   14   28 1
    26   15   16 1
    27   15   29 1
    28   15   30 1
    29   16   17 1
    30   16   31 1
    31   16   36 1
    32   17   18 1
    33   17   32 1
    34   17   33 1
    35   18   34 1
    36   18   35 1
@<TRIPOS>MOLECULE
ZINC00528159
   45    46     0     0     0
SMALL
USER_CHARGES

@<TRIPOS>ATOM
      1 C1          2.1020   -1.6183    1.4678 C.3       1 <0>        -0.2106
      2 C2          0.8248   -0.9816    0.9836 C.2       1 <0>         0.4226
      3 O1          0.8389    0.1512    0.5458 O.2       1 <0>        -0.4648
      4 C3         -0.3879   -1.7019    1.0387 C.2       1 <0>        -0.4559
      5 C4         -1.0156   -2.1150   -0.1510 C.2       1 <0>         0.5741
      6 N1         -0.4089   -1.9024   -1.3486 N.pl3     1 <0>        -0.8248
      7 N2         -2.2285   -2.7265   -0.1025 N.pl3     1 <0>        -0.6618
      8 C5         -3.4653   -1.9485   -0.2608 C.3       1 <0>         0.1345
      9 C6         -4.2833   -2.5563   -1.4070 C.3       1 <0>         0.0961
     10 N3         -4.3814   -4.0074   -1.1959 N.am      1 <0>        -0.6087
     11 C7         -3.1447   -4.7853   -1.0377 C.3       1 <0>         0.0857
     12 C8         -2.3265   -4.1784    0.1030 C.3       1 <0>         0.1348
     13 C9         -5.5841   -4.6137   -1.1479 C.2       1 <0>         0.5044
     14 O2         -6.5979   -3.9612   -1.2794 O.2       1 <0>        -0.5177
     15 C10        -5.6692   -6.1026   -0.9308 C.3       1 <0>         0.0659
     16 H1         -5.1425   -6.3734   -0.0158 H         1 <0>         0.1077
     17 C11        -5.0455   -6.8436   -2.1330 C.3       1 <0>        -0.1469
     18 C12        -6.0083   -8.0490   -2.3127 C.3       1 <0>        -0.1552
     19 C13        -7.3601   -7.4084   -1.9087 C.3       1 <0>         0.0462
     20 O3         -7.0415   -6.5025   -0.8380 O.3       1 <0>        -0.3505
     21 C14        -0.9710   -2.0078    2.2873 C.2       1 <0>         0.4161
     22 O4         -2.0366   -2.5887    2.3339 O.2       1 <0>        -0.4852
     23 C15        -0.2713   -1.6135    3.5625 C.3       1 <0>        -0.2032
     24 H2          2.9397   -0.9503    1.2675 H         1 <0>         0.0796
     25 H3          2.0324   -1.8024    2.5399 H         1 <0>         0.0958
     26 H4          2.2576   -2.5627    0.9463 H         1 <0>         0.0875
     27 H5          0.4876   -1.5335   -1.3795 H         1 <0>         0.4117
     28 H6         -4.0433   -1.9886    0.6625 H         1 <0>         0.0774
     29 H7         -3.2186   -0.9132   -0.4962 H         1 <0>         0.0834
     30 H8         -5.2819   -2.1194   -1.4154 H         1 <0>         0.1040
     31 H9         -3.7863   -2.3575   -2.3565 H         1 <0>         0.0680
     32 H10        -3.3914   -5.8206   -0.8022 H         1 <0>         0.0967
     33 H11        -2.5666   -4.7453   -1.9609 H         1 <0>         0.0721
     34 H12        -1.3280   -4.6154    0.1077 H         1 <0>         0.0818
     35 H13        -2.8216   -4.3809    1.0527 H         1 <0>         0.0822
     36 H14        -5.0456   -6.2114   -3.0209 H         1 <0>         0.0819
     37 H15        -4.0371   -7.1842   -1.8980 H         1 <0>         0.0936
     38 H16        -6.0272   -8.3855   -3.3493 H         1 <0>         0.0890
     39 H17        -5.7444   -8.8660   -1.6411 H         1 <0>         0.0848
     40 H18        -7.7876   -6.8644   -2.7510 H         1 <0>         0.0643
     41 H19        -8.0530   -8.1747   -1.5613 H         1 <0>         0.0934
     42 H20         0.6178   -1.0300    3.3236 H         1 <0>         0.0705
     43 H21        -0.9445   -1.0151    4.1763 H         1 <0>         0.0857
     44 H22         0.0190   -2.5103    4.1099 H         1 <0>         0.0892
     45 H23        -0.8726   -2.1198   -2.1725 H         1 <0>         0.4049
@<TRIPOS>BOND
     1    1    2 1
     2    1   24 1
     3    1   25 1
     4    1   26 1
     5    2    3 2
     6    2    4 1
     7    4    5 2
     8    4   21 1
     9    5    6 1
    10    5    7 1
    11    6   27 1
    12    6   45 1
    13    7   12 1
    14    7    8 1
    15    8    9 1
    16    8   28 1
    17    8   29 1
    18    9   10 1
    19    9   30 1
    20    9   31 1
    21   10   11 1
    22   10   13 am
    23   11   12 1
    24   11   32 1
    25   11   33 1
    26   12   34 1
    27   12   35 1
    28   13   14 2
    29   13   15 1
    30   15   16 1
    31   15   20 1
    32   15   17 1
    33   17   18 1
    34   17   36 1
    35   17   37 1
    36   18   19 1
    37   18   38 1
    38   18   39 1
    39   19   20 1
    40   19   40 1
    41   19   41 1
    42   21   22 2
    43   21   23 1
    44   23   42 1
    45   23   43 1
    46   23   44 1
@<TRIPOS>MOLECULE
ZINC04994144
   29    30     0     0     0
SMALL
USER_CHARGES
8-(aminocarbamoyl)-2,5-dioxo-3,4-diazabicyclo[4.3.0]nonane-7-carboxylic acid
@<TRIPOS>ATOM
      1 C1         -2.7245    1.8062    1.9561 C.3       1 <0>        -0.0742
      2 C2         -2.6326    0.5074    1.1557 C.3       1 <0>        -0.1190
      3 H1         -1.7960   -0.0999    1.5015 H         1 <0>         0.1431
      4 C3         -2.3505    1.0514   -0.2753 C.3       1 <0>        -0.0980
      5 H2         -3.2455    1.5375   -0.6638 H         1 <0>         0.0993
      6 C4         -1.2676    2.0914   -0.0384 C.3       1 <0>        -0.1112
      7 H3         -1.3420    2.8903   -0.7762 H         1 <0>         0.0889
      8 C5         -1.5434    2.6425    1.3855 C.3       1 <0>        -0.0906
      9 H4         -1.8213    3.6951    1.3323 H         1 <0>         0.0944
     10 C6         -0.3223    2.4719    2.2520 C.2       1 <0>         0.5323
     11 O1         -0.1916    1.4718    2.9256 O.2       1 <0>        -0.5166
     12 N1          0.6245    3.4307    2.2785 N.am      1 <0>        -0.5709
     13 N2          1.7314    3.2761    3.0639 N.3       1 <0>        -0.5983
     14 C7          0.0952    1.4510   -0.0971 C.2       1 <0>         0.4768
     15 O2          0.2626    0.3440    0.3573 O.co2     1 <0>        -0.6127
     16 C8         -2.0261   -0.1409   -1.1110 C.2       1 <0>         0.5518
     17 O3         -1.1120   -0.1460   -1.9080 O.2       1 <0>        -0.4767
     18 N3         -2.8319   -1.2264   -0.9153 N.am      1 <0>        -0.5394
     19 N4         -3.9294   -1.1404   -0.0405 N.am      1 <0>        -0.5297
     20 C9         -3.8802   -0.3137    1.0449 C.2       1 <0>         0.5453
     21 O4         -4.7763   -0.2601    1.8605 O.2       1 <0>        -0.5182
     22 H5         -3.6758    2.3062    1.7738 H         1 <0>         0.0799
     23 H6         -2.5878    1.6149    3.0205 H         1 <0>         0.0890
     24 H7          0.5200    4.2305    1.7398 H         1 <0>         0.3957
     25 H8          2.2148    2.4185    2.8427 H         1 <0>         0.3456
     26 H9          2.3478    4.0705    2.9804 H         1 <0>         0.3459
     27 H10        -2.6470   -2.0573   -1.3804 H         1 <0>         0.4167
     28 H11        -4.7243   -1.6701   -0.2090 H         1 <0>         0.4157
     29 O5          1.1219    2.1080   -0.6591 O.co2     1 <0>        -0.7650
@<TRIPOS>BOND
     1    1    8 1
     2    1    2 1
     3    1   22 1
     4    1   23 1
     5    2    3 1
     6    2   20 1
     7    2    4 1
     8    4    5 1
     9    4    6 1
    10    4   16 1
    11    6    7 1
    12    6    8 1
    13    6   14 1
    14    8    9 1
    15    8   10 1
    16   10   11 2
    17   10   12 am
    18   12   13 1
    19   12   24 1
    20   13   25 1
    21   13   26 1
    22   14   15 2
    23   14   29 1
    24   16   17 2
    25   16   18 am
    26   18   19 1
    27   18   27 1
    28   19   20 am
    29   19   28 1
    30   20   21 2
@<TRIPOS>MOLECULE
ZINC13551958
   27    27     0     0     0
SMALL
USER_CHARGES
[(2R,3S,4S,5S,6S)-3,4,5,6-tetrahydroxytetrahydropyran-2-yl]methyl hydrogen sulfate
@<TRIPOS>ATOM
      1 C1          0.7705    3.6342    1.2753 C.3       1 <0>         0.1012
      2 C2          0.5992    5.1508    1.1683 C.3       1 <0>         0.1065
      3 H1          1.5180    5.5942    0.7845 H         1 <0>         0.0878
      4 C3          0.2928    5.7288    2.5524 C.3       1 <0>         0.0914
      5 H2         -0.6034    5.2562    2.9543 H         1 <0>         0.0840
      6 C4          0.0630    7.2381    2.4274 C.3       1 <0>         0.0865
      7 H3          0.9754    7.7175    2.0727 H         1 <0>         0.0887
      8 C5         -1.0701    7.4902    1.4280 C.3       1 <0>         0.0585
      9 H4         -1.2042    8.5632    1.2910 H         1 <0>         0.0760
     10 C6         -0.7108    6.8441    0.0874 C.3       1 <0>         0.2229
     11 H5         -1.5324    6.9835   -0.6151 H         1 <0>         0.1059
     12 O1         -0.4802    5.4470    0.2800 O.3       1 <0>        -0.3619
     13 O2          0.4712    7.4547   -0.4344 O.3       1 <0>        -0.5786
     14 O3         -2.2812    6.9171    1.9248 O.3       1 <0>        -0.5349
     15 O4         -0.2952    7.7761    3.7019 O.3       1 <0>        -0.5543
     16 O5          1.3961    5.4843    3.4270 O.3       1 <0>        -0.5517
     17 O6          1.1700    3.1094    0.0076 O.3       1 <0>        -0.7785
     18 S1          1.3708    1.6007   -0.0024 S.o2      1 <0>         2.7769
     19 O7          1.9822    1.2642    1.2353 O.2       1 <0>        -1.0916
     20 O8          1.9585    1.2775   -1.2552 O.2       1 <0>        -1.0632
     21 H6         -0.1751    3.1819    1.5740 H         1 <0>         0.0811
     22 H7          1.5335    3.4063    2.0196 H         1 <0>         0.1092
     23 H8          0.7583    7.0932   -1.2841 H         1 <0>         0.3957
     24 H9         -3.0414    7.0350    1.3389 H         1 <0>         0.3804
     25 H10        -0.4613    8.7287    3.6942 H         1 <0>         0.3800
     26 H11         1.2704    5.8245    4.3234 H         1 <0>         0.3873
     27 O9         -0.0110    0.9628    0.0073 O.3       1 <0>        -1.1052
@<TRIPOS>BOND
     1    1    2 1
     2    1   17 1
     3    1   21 1
     4    1   22 1
     5    2    3 1
     6    2   12 1
     7    2    4 1
     8    4    5 1
     9    4    6 1
    10    4   16 1
    11    6    7 1
    12    6    8 1
    13    6   15 1
    14    8    9 1
    15    8   10 1
    16    8   14 1
    17   10   11 1
    18   10   12 1
    19   10   13 1
    20   13   23 1
    21   14   24 1
    22   15   25 1
    23   16   26 1
    24   17   18 1
    25   18   19 2
    26   18   20 2
    27   18   27 1
@<TRIPOS>MOLECULE
ZINC38665298
   21    20     0     0     0
SMALL
USER_CHARGES

@<TRIPOS>ATOM
      1 C1         -0.0127    1.0858    0.0080 C.3       1 <0>         0.0693
      2 H1          0.0021   -0.0041    0.0020 H         1 <0>         0.1020
      3 C2          1.4227    1.6154   -0.0028 C.3       1 <0>         0.0775
      4 H2          1.9756    1.1836    0.8314 H         1 <0>         0.1387
      5 C3          2.0895    1.2328   -1.2990 C.2       1 <0>         0.5084
      6 O1          2.4276    2.0933   -2.0841 O.2       1 <0>        -0.5194
      7 N1          2.3100   -0.0654   -1.5859 N.am      1 <0>        -0.5905
      8 O2          2.9365   -0.4249   -2.8038 O.3       1 <0>        -0.3212
      9 O3          1.4062    3.0388    0.1224 O.3       1 <0>        -0.5216
     10 C4         -0.7288    1.5792    1.2668 C.3       1 <0>         0.0125
     11 H3         -0.7436    2.6691    1.2728 H         1 <0>         0.1010
     12 C5         -2.1427    1.0576    1.2775 C.2       1 <0>         0.4731
     13 O4         -2.4967    0.2738    2.1417 O.co2     1 <0>        -0.6899
     14 O5         -2.9324    1.4194    0.4220 O.co2     1 <0>        -0.6767
     15 O6         -0.0377    1.1059    2.4245 O.3       1 <0>        -0.5505
     16 O7         -0.7038    1.5592   -1.1497 O.3       1 <0>        -0.5276
     17 H4          2.0395   -0.7536   -0.9581 H         1 <0>         0.4087
     18 H5          3.0518   -1.3779   -2.9206 H         1 <0>         0.3848
     19 H6          0.9300    3.4906   -0.5877 H         1 <0>         0.3806
     20 H7          0.0142    0.1421    2.4850 H         1 <0>         0.3688
     21 H8         -0.7557    2.5229   -1.2101 H         1 <0>         0.3722
@<TRIPOS>BOND
     1    1    2 1
     2    1    3 1
     3    1   10 1
     4    1   16 1
     5    3    4 1
     6    3    5 1
     7    3    9 1
     8    5    6 2
     9    5    7 am
    10    7    8 1
    11    7   17 1
    12    8   18 1
    13    9   19 1
    14   10   11 1
    15   10   12 1
    16   10   15 1
    17   12   13 2
    18   12   14 1
    19   15   20 1
    20   16   21 1
@<TRIPOS>MOLECULE
ZINC40710441
   31    30     0     0     0
SMALL
USER_CHARGES

@<TRIPOS>ATOM
      1 C1         -0.0187    1.5258    0.0104 C.3       1 <0>        -0.1086
      2 C2          0.0021   -0.0041    0.0020 C.3       1 <0>         0.0781
      3 O1         -1.3386   -0.4987    0.0122 O.3       1 <0>        -0.5759
      4 C3          1.4167    2.0553   -0.0004 C.3       1 <0>         0.0950
      5 H1          1.9696    1.6236    0.8338 H         1 <0>         0.0855
      6 C4          1.3993    3.5565    0.1316 C.2       1 <0>         0.4920
      7 O2          1.0708    4.0718    1.1866 O.co2     1 <0>        -0.6954
      8 O3          1.7138    4.2555   -0.8165 O.co2     1 <0>        -0.6858
      9 N1          2.0649    1.6835   -1.2605 N.am      1 <0>        -0.7098
     10 C5          3.4069    1.5752   -1.3217 C.2       1 <0>         0.7076
     11 O4          4.0796    1.7861   -0.3311 O.2       1 <0>        -0.5888
     12 N2          4.0032    1.2330   -2.4809 N.am      1 <0>        -0.7481
     13 C6          5.4620    1.1153   -2.5474 C.3       1 <0>         0.1552
     14 C7          5.8775    0.7184   -3.9654 C.3       1 <0>        -0.6414
     15 S1          7.6838    0.5727   -4.0477 S.o2      1 <0>         2.6267
     16 O5          8.2856    1.8504   -3.8909 O.2       1 <0>        -0.9547
     17 O6          8.1213   -0.5343   -3.2716 O.2       1 <0>        -0.9580
     18 N3          8.0051    0.1436   -5.6146 N.pl3     1 <0>        -1.2511
     19 H2         -0.5459    1.8868   -0.8726 H         1 <0>         0.0683
     20 H3         -0.5289    1.8773    0.9072 H         1 <0>         0.0890
     21 H4          0.5123   -0.3556   -0.8948 H         1 <0>         0.0415
     22 H5          0.5293   -0.3651    0.8851 H         1 <0>         0.0447
     23 H6         -1.4018   -1.4636    0.0076 H         1 <0>         0.3719
     24 H7          1.5282    1.5152   -2.0508 H         1 <0>         0.3872
     25 H8          3.4666    1.0648   -3.2712 H         1 <0>         0.3945
     26 H9          5.9158    2.0724   -2.2902 H         1 <0>         0.0827
     27 H10         5.7975    0.3534   -1.8438 H         1 <0>         0.0806
     28 H11         5.4237   -0.2386   -4.2225 H         1 <0>         0.1408
     29 H12         5.5420    1.4804   -4.6690 H         1 <0>         0.1430
     30 H13         7.2771    0.0299   -6.2453 H         1 <0>         0.4127
     31 H14         8.9214    0.0060   -5.9015 H         1 <0>         0.4206
@<TRIPOS>BOND
     1    1    2 1
     2    1    4 1
     3    1   19 1
     4    1   20 1
     5    2    3 1
     6    2   21 1
     7    2   22 1
     8    3   23 1
     9    4    5 1
    10    4    6 1
    11    4    9 1
    12    6    7 2
    13    6    8 1
    14    9   10 am
    15    9   24 1
    16   10   11 2
    17   10   12 am
    18   12   13 1
    19   12   25 1
    20   13   14 1
    21   13   26 1
    22   13   27 1
    23   14   15 1
    24   14   28 1
    25   14   29 1
    26   15   16 2
    27   15   17 2
    28   15   18 1
    29   18   30 1
    30   18   31 1
@<TRIPOS>MOLECULE
ZINC52834340
   17    17     0     0     0
SMALL
USER_CHARGES

@<TRIPOS>ATOM
      1 C1         -0.0184    1.5028    0.0103 C.3       1 <0>         0.2473
      2 C2          0.0021   -0.0041    0.0020 C.2       1 <0>         0.0280
      3 N1          0.0085   -0.7883   -1.0661 N.2       1 <0>        -0.3692
      4 N2          0.0272   -2.0095   -0.6528 N.2       1 <0>        -0.1912
      5 N3          0.0327   -2.0165    0.6347 N.2       1 <0>        -0.1912
      6 N4          0.0229   -0.7998    1.0614 N.2       1 <0>        -0.3693
      7 N5          1.3560    2.0099   -0.0001 N.pl3     1 <0>        -0.7057
      8 C3          1.5898    3.3699    0.0050 C.2       1 <0>         0.6155
      9 N6          2.8101    3.8201   -0.0043 N.2       1 <0>        -0.5016
     10 O1          3.0500    5.2156    0.0009 O.3       1 <0>        -0.4335
     11 N7          0.5289    4.2522    0.0198 N.pl3     1 <0>        -0.8807
     12 H1         -0.5455    1.8639   -0.8728 H         1 <0>         0.0689
     13 H2         -0.5286    1.8543    0.9071 H         1 <0>         0.0689
     14 H3          2.1018    1.3896   -0.0105 H         1 <0>         0.4179
     15 H4          3.9872    5.4537   -0.0067 H         1 <0>         0.3905
     16 H5         -0.3811    3.9165    0.0267 H         1 <0>         0.3935
     17 H6          0.6932    5.2082    0.0234 H         1 <0>         0.4120
@<TRIPOS>BOND
     1    1    2 1
     2    1    7 1
     3    1   12 1
     4    1   13 1
     5    2    6 2
     6    2    3 1
     7    3    4 1
     8    4    5 2
     9    5    6 1
    10    7    8 1
    11    7   14 1
    12    8    9 2
    13    8   11 1
    14    9   10 1
    15   10   15 1
    16   11   16 1
    17   11   17 1
@<TRIPOS>MOLECULE
ZINC05631691
   29    28     0     0     0
SMALL
USER_CHARGES
5-amino-5-oxo-2-(3-oxobutanoylamino)pentanoic acid
@<TRIPOS>ATOM
      1 C1          3.8527    1.5378   -0.0265 C.3       1 <0>        -0.1893
      2 C2          2.4389    1.0162   -0.0158 C.2       1 <0>         0.3430
      3 O1          2.2344   -0.1739   -0.0202 O.2       1 <0>        -0.4073
      4 C3          1.2803    1.9798    0.0005 C.3       1 <0>        -0.1858
      5 C4         -0.0144    1.2086    0.0087 C.2       1 <0>         0.5068
      6 O2          0.0021   -0.0041    0.0020 O.2       1 <0>        -0.5105
      7 N1         -1.1906    1.8666    0.0178 N.am      1 <0>        -0.7048
      8 C5         -2.4492    1.1169    0.0197 C.3       1 <0>         0.1021
      9 H1         -2.3335    0.2109   -0.5752 H         1 <0>         0.0896
     10 C6         -3.5593    1.9824   -0.5799 C.3       1 <0>        -0.0924
     11 C7         -3.2530    2.2555   -2.0539 C.3       1 <0>        -0.1401
     12 C8         -4.3464    3.1080   -2.6445 C.2       1 <0>         0.5147
     13 O3         -5.2787    3.4623   -1.9545 O.2       1 <0>        -0.5374
     14 N2         -4.2881    3.4767   -3.9396 N.am      1 <0>        -0.8631
     15 C9         -2.8108    0.7458    1.4349 C.2       1 <0>         0.4592
     16 O4         -2.0909    1.0738    2.3481 O.co2     1 <0>        -0.6302
     17 H2          4.1744    1.6481    0.9139 H         1 <0>         0.0835
     18 H3          4.4967    0.8314   -0.5503 H         1 <0>         0.0826
     19 H4          3.8807    2.5013   -0.5354 H         1 <0>         0.0814
     20 H5          1.3176    2.5598   -0.8133 H         1 <0>         0.1068
     21 H6          1.3381    2.6024    0.8933 H         1 <0>         0.1229
     22 H7         -1.2037    2.8365    0.0232 H         1 <0>         0.3899
     23 H8         -4.5122    1.4596   -0.4976 H         1 <0>         0.0944
     24 H9         -3.6154    2.9273   -0.0394 H         1 <0>         0.0688
     25 H10        -2.3001    2.7783   -2.1362 H         1 <0>         0.0900
     26 H11        -3.1969    1.3106   -2.5944 H         1 <0>         0.0941
     27 H12        -3.5424    3.1934   -4.4914 H         1 <0>         0.3993
     28 H13        -4.9918    4.0255   -4.3198 H         1 <0>         0.3965
     29 O5         -3.9325    0.0508    1.6808 O.co2     1 <0>        -0.7648
@<TRIPOS>BOND
     1    1    2 1
     2    1   17 1
     3    1   18 1
     4    1   19 1
     5    2    3 2
     6    2    4 1
     7    4    5 1
     8    4   20 1
     9    4   21 1
    10    5    6 2
    11    5    7 am
    12    7    8 1
    13    7   22 1
    14    8    9 1
    15    8   10 1
    16    8   15 1
    17   10   11 1
    18   10   23 1
    19   10   24 1
    20   11   12 1
    21   11   25 1
    22   11   26 1
    23   12   13 2
    24   12   14 am
    25   14   27 1
    26   14   28 1
    27   15   16 2
    28   15   29 1
@<TRIPOS>MOLECULE
ZINC20412102
   38    38     0     0     0
SMALL
USER_CHARGES
(2R)-2-[(1,3-dimethyl-2,4,6-trioxo-hexahydropyrimidin-5-ylidene)methylamino]-4-[(S)-methylsulfinyl]butanoic acid
@<TRIPOS>ATOM
      1 C1         -5.0727   -5.1104    1.4844 C.3       1 <0>         0.0809
      2 N1         -4.6658   -3.8310    0.8978 N.am      1 <0>        -0.5642
      3 C2         -3.3672   -3.4687    0.9430 C.2       1 <0>         0.5878
      4 O1         -2.5353   -4.1889    1.4622 O.2       1 <0>        -0.5229
      5 C3         -2.9832   -2.1771    0.3460 C.2       1 <0>        -0.4700
      6 C4         -1.6719   -1.7394    0.3552 C.2       1 <0>         0.3625
      7 N2         -1.3322   -0.6143   -0.3050 N.pl3     1 <0>        -0.6230
      8 C5          0.0371   -0.1003   -0.2203 C.3       1 <0>         0.0774
      9 H1          0.4126   -0.3220    0.7896 H         1 <0>         0.0989
     10 C6          0.0337    1.4063   -0.4869 C.3       1 <0>        -0.0885
     11 C7         -0.7360    2.1195    0.6266 C.3       1 <0>        -0.4500
     12 S1         -0.7400    3.9057    0.3105 S.o       1 <0>         1.2435
     13 O2         -1.4291    4.1703   -0.9038 O.2       1 <0>        -0.8494
     14 C8         -1.6789    4.5954    1.7010 C.3       1 <0>        -0.4945
     15 C9          0.8972   -0.7903   -1.2475 C.2       1 <0>         0.4532
     16 O3          0.4158   -1.6257   -1.9757 O.co2     1 <0>        -0.6175
     17 O4          2.1980   -0.4768   -1.3535 O.co2     1 <0>        -0.7465
     18 C10        -4.0594   -1.3697   -0.2557 C.2       1 <0>         0.5827
     19 O5         -3.8210   -0.2900   -0.7634 O.2       1 <0>        -0.5330
     20 N3         -5.3151   -1.8620   -0.2321 N.am      1 <0>        -0.5629
     21 C11        -5.5925   -3.0473    0.3290 C.2       1 <0>         0.7137
     22 O6         -6.7454   -3.4318    0.3213 O.2       1 <0>        -0.5515
     23 C12        -6.4015   -1.0806   -0.8282 C.3       1 <0>         0.0769
     24 H2         -4.1915   -5.6185    1.9031 H         1 <0>         0.1018
     25 H3         -5.5256   -5.7428    0.7066 H         1 <0>         0.0747
     26 H4         -5.8065   -4.9303    2.2838 H         1 <0>         0.0741
     27 H5         -0.9057   -2.3092    0.9013 H         1 <0>         0.1700
     28 H6         -2.0832   -0.0821   -0.9074 H         1 <0>         0.4437
     29 H7          1.0692    1.7765   -0.5121 H         1 <0>         0.1080
     30 H8         -0.4509    1.6065   -1.4539 H         1 <0>         0.0732
     31 H9         -1.7715    1.7492    0.6518 H         1 <0>         0.0862
     32 H10        -0.2514    1.9193    1.5936 H         1 <0>         0.1196
     33 H11        -1.7372    5.6890    1.5976 H         1 <0>         0.1037
     34 H12        -1.1744    4.3428    2.6453 H         1 <0>         0.1111
     35 H13        -2.6944    4.1727    1.7033 H         1 <0>         0.0772
     36 H14        -7.3492   -1.6285   -0.7203 H         1 <0>         0.1010
     37 H15        -6.1922   -0.9165   -1.8956 H         1 <0>         0.0774
     38 H16        -6.4787   -0.1101   -0.3163 H         1 <0>         0.0748
@<TRIPOS>BOND
     1    1    2 1
     2    1   24 1
     3    1   25 1
     4    1   26 1
     5    2   21 am
     6    2    3 am
     7    3    4 2
     8    3    5 1
     9    5    6 2
    10    5   18 1
    11    6    7 1
    12    6   27 1
    13    7    8 1
    14    7   28 1
    15    8    9 1
    16    8   10 1
    17    8   15 1
    18   10   11 1
    19   10   29 1
    20   10   30 1
    21   11   12 1
    22   11   31 1
    23   11   32 1
    24   12   13 2
    25   12   14 1
    26   14   33 1
    27   14   34 1
    28   14   35 1
    29   15   16 2
    30   15   17 1
    31   18   19 2
    32   18   20 am
    33   20   21 am
    34   20   23 1
    35   21   22 2
    36   23   36 1
    37   23   37 1
    38   23   38 1
@<TRIPOS>MOLECULE
ZINC37434516
   26    26     0     0     0
SMALL
USER_CHARGES

@<TRIPOS>ATOM
      1 C1         -0.0187    1.5258    0.0104 C.3       1 <0>        -0.1394
      2 C2          0.0021   -0.0041    0.0020 C.3       1 <0>         0.0706
      3 H1         -1.0205   -0.3814    0.0098 H         1 <0>         0.0817
      4 C3          0.7074   -0.4901   -1.2379 C.2       1 <0>         0.4966
      5 O1          1.9121   -0.6771   -1.2202 O.co2     1 <0>        -0.6907
      6 O2          0.0735   -0.6963   -2.2587 O.co2     1 <0>        -0.6861
      7 N1          0.7106   -0.4894    1.1889 N.am      1 <0>        -0.6893
      8 C4          0.0512   -0.6335    2.3554 C.2       1 <0>         0.4929
      9 O3         -1.1288   -0.3614    2.4226 O.2       1 <0>        -0.5490
     10 C5          0.7801   -1.1327    3.5763 C.3       1 <0>         0.0992
     11 N2         -0.1498   -1.2008    4.7064 N.am      1 <0>        -0.5584
     12 C6         -0.3766   -0.1849    5.5624 C.2       1 <0>         0.5252
     13 O4          0.1310    0.9158    5.5435 O.2       1 <0>        -0.4678
     14 C7         -1.3991   -0.7047    6.5534 C.3       1 <0>         0.0670
     15 N3         -1.6536   -2.0823    6.0979 N.am      1 <0>        -0.7296
     16 C8         -0.8829   -2.2772    5.0126 C.2       1 <0>         0.7067
     17 O5         -0.8535   -3.3162    4.3826 O.2       1 <0>        -0.5370
     18 H2          1.0039    1.9031    0.0027 H         1 <0>         0.0531
     19 H3         -0.5459    1.8868   -0.8726 H         1 <0>         0.0624
     20 H4         -0.5289    1.8773    0.9072 H         1 <0>         0.0470
     21 H5          1.6544   -0.7070    1.1351 H         1 <0>         0.4069
     22 H6          1.1839   -2.1254    3.3778 H         1 <0>         0.1266
     23 H7          1.5952   -0.4503    3.8172 H         1 <0>         0.1245
     24 H8         -0.9891   -0.7043    7.5633 H         1 <0>         0.1230
     25 H9         -2.3123   -0.1113    6.5090 H         1 <0>         0.1234
     26 H10        -2.2606   -2.7230    6.5003 H         1 <0>         0.4407
@<TRIPOS>BOND
     1    1    2 1
     2    1   18 1
     3    1   19 1
     4    1   20 1
     5    2    3 1
     6    2    4 1
     7    2    7 1
     8    4    5 2
     9    4    6 1
    10    7    8 am
    11    7   21 1
    12    8    9 2
    13    8   10 1
    14   10   11 1
    15   10   22 1
    16   10   23 1
    17   11   16 am
    18   11   12 am
    19   12   13 2
    20   12   14 1
    21   14   15 1
    22   14   24 1
    23   14   25 1
    24   15   16 am
    25   15   26 1
    26   16   17 2
@<TRIPOS>MOLECULE
ZINC39125329
   37    38     0     0     0
SMALL
USER_CHARGES

@<TRIPOS>ATOM
      1 C1         -0.0017    1.4518    0.0346 C.3       1 <0>         0.0664
      2 N1          0.0127   -0.0130    0.0169 N.am      1 <0>        -0.5417
      3 C2         -1.1742   -0.7083    0.0160 C.2       1 <0>         0.4693
      4 C3         -1.1466   -2.0881   -0.0007 C.2       1 <0>        -0.1363
      5 C4          0.0996   -2.7425   -0.0165 C.2       1 <0>         0.5629
      6 O1          0.1530   -3.9607   -0.0319 O.2       1 <0>        -0.4986
      7 N2          1.2330   -2.0139   -0.0149 N.am      1 <0>        -0.5571
      8 C5          1.1865   -0.6699   -0.0040 C.2       1 <0>         0.7087
      9 O2          2.2248   -0.0368   -0.0083 O.2       1 <0>        -0.5393
     10 C6          2.5307   -2.6935   -0.0308 C.3       1 <0>         0.0834
     11 N3         -2.3462   -2.8294   -0.0016 N.am      1 <0>        -0.6428
     12 C7         -2.6147   -3.6757   -1.0157 C.2       1 <0>         0.5659
     13 O3         -1.7861   -3.8647   -1.8854 O.2       1 <0>        -0.5083
     14 C8         -3.9164   -4.3740   -1.0706 C.ar      1 <0>        -0.1126
     15 C9         -4.8719   -4.1549   -0.0769 C.ar      1 <0>        -0.1161
     16 C10        -6.0847   -4.8099   -0.1341 C.ar      1 <0>        -0.0411
     17 C11        -6.3548   -5.6827   -1.1732 C.ar      1 <0>        -0.6318
     18 C12        -5.4120   -5.9044   -2.1614 C.ar      1 <0>        -0.0396
     19 C13        -4.1977   -5.2511   -2.1194 C.ar      1 <0>        -0.0832
     20 S1         -7.9059   -6.5160   -1.2380 S.o2      1 <0>         2.6929
     21 O4         -7.6735   -7.7901   -1.9004 O.2       1 <0>        -1.0584
     22 O5         -8.3492   -6.6910    0.1363 O.2       1 <0>        -1.0597
     23 O6         -8.8105   -5.6663   -1.9967 O.3       1 <0>        -1.0591
     24 N4         -2.3733   -0.0370    0.0322 N.pl3     1 <0>        -0.8309
     25 H1          1.0223    1.8253    0.0277 H         1 <0>         0.1137
     26 H2         -0.5289    1.8207   -0.8452 H         1 <0>         0.0812
     27 H3         -0.5091    1.7994    0.9345 H         1 <0>         0.0815
     28 H4          2.3758   -3.7724   -0.0425 H         1 <0>         0.1030
     29 H5          3.0855   -2.3965   -0.9208 H         1 <0>         0.0762
     30 H6          3.0964   -2.4173    0.8590 H         1 <0>         0.0760
     31 H7         -2.9781   -2.7304    0.7276 H         1 <0>         0.4017
     32 H8         -4.6621   -3.4744    0.7350 H         1 <0>         0.1228
     33 H9         -6.8249   -4.6413    0.6340 H         1 <0>         0.1395
     34 H10        -5.6289   -6.5871   -2.9696 H         1 <0>         0.1410
     35 H11        -3.4644   -5.4215   -2.8938 H         1 <0>         0.1359
     36 H12        -2.3860    0.9329    0.0442 H         1 <0>         0.4086
     37 H13        -3.2069   -0.5330    0.0315 H         1 <0>         0.4259
@<TRIPOS>BOND
     1    1    2 1
     2    1   25 1
     3    1   26 1
     4    1   27 1
     5    2    8 am
     6    2    3 1
     7    3    4 2
     8    3   24 1
     9    4    5 1
    10    4   11 1
    11    5    6 2
    12    5    7 am
    13    7    8 am
    14    7   10 1
    15    8    9 2
    16   10   28 1
    17   10   29 1
    18   10   30 1
    19   11   12 am
    20   11   31 1
    21   12   13 2
    22   12   14 1
    23   14   19 ar
    24   14   15 ar
    25   15   16 ar
    26   15   32 1
    27   16   17 ar
    28   16   33 1
    29   17   18 ar
    30   17   20 1
    31   18   19 ar
    32   18   34 1
    33   19   35 1
    34   20   21 2
    35   20   22 2
    36   20   23 1
    37   24   36 1
    38   24   37 1
@<TRIPOS>MOLECULE
ZINC43509785
   33    34     0     0     0
SMALL
USER_CHARGES

@<TRIPOS>ATOM
      1 C1         -0.0178    1.4608    0.0101 C.3       1 <0>         0.1083
      2 N1          0.0021   -0.0041    0.0020 N.am      1 <0>        -0.4613
      3 C2         -1.1581   -0.6895    0.0038 C.2       1 <0>         0.4953
      4 O1         -2.2154   -0.0961    0.0170 O.2       1 <0>        -0.5251
      5 C3         -1.1366   -2.1970   -0.0112 C.3       1 <0>        -0.1409
      6 C4          0.0728   -2.6753   -0.8173 C.3       1 <0>        -0.1094
      7 C5          1.3011   -1.9226   -0.3800 C.2       1 <0>         0.1064
      8 N2          1.2250   -0.6825   -0.0133 N.2       1 <0>        -0.2244
      9 C6          2.6020   -2.6012   -0.3747 C.2       1 <0>         0.5781
     10 O2          2.6828   -3.7644   -0.7221 O.2       1 <0>        -0.4929
     11 N3          3.7075   -1.9360    0.0151 N.am      1 <0>        -0.6869
     12 C7          5.0064   -2.6136    0.0204 C.3       1 <0>         0.0932
     13 C8          6.0890   -1.5941    0.3715 C.3       1 <0>        -0.1145
     14 C9          6.3080   -1.5486    1.9096 C.3       1 <0>        -0.0583
     15 S1          6.1706   -3.3498    2.2933 S.3       1 <0>        -0.3304
     16 C10         4.9399   -3.8012    1.0004 C.3       1 <0>        -0.0230
     17 C11         5.2782   -3.1443   -1.3637 C.2       1 <0>         0.5063
     18 O3          4.4703   -2.9579   -2.2576 O.co2     1 <0>        -0.6642
     19 O4          6.3060   -3.7601   -1.5895 O.co2     1 <0>        -0.6838
     20 H1          1.0048    1.8381    0.0023 H         1 <0>         0.0902
     21 H2         -0.5450    1.8219   -0.8730 H         1 <0>         0.0681
     22 H3         -0.5280    1.8123    0.9069 H         1 <0>         0.0700
     23 H4         -1.0640   -2.5703    1.0103 H         1 <0>         0.1064
     24 H5         -2.0515   -2.5696   -0.4717 H         1 <0>         0.1172
     25 H6          0.2219   -3.7420   -0.6495 H         1 <0>         0.1181
     26 H7         -0.1041   -2.4964   -1.8779 H         1 <0>         0.1019
     27 H8          3.6431   -1.0087    0.2921 H         1 <0>         0.3955
     28 H9          7.0217   -1.8756   -0.1174 H         1 <0>         0.1003
     29 H10         5.7831   -0.6082    0.0214 H         1 <0>         0.0778
     30 H11         7.2967   -1.1635    2.1590 H         1 <0>         0.1045
     31 H12         5.5245   -0.9757    2.4057 H         1 <0>         0.0845
     32 H13         3.9428   -3.8884    1.4321 H         1 <0>         0.0847
     33 H14         5.2270   -4.7274    0.5026 H         1 <0>         0.1082
@<TRIPOS>BOND
     1    1    2 1
     2    1   20 1
     3    1   21 1
     4    1   22 1
     5    2    8 1
     6    2    3 am
     7    3    4 2
     8    3    5 1
     9    5    6 1
    10    5   23 1
    11    5   24 1
    12    6    7 1
    13    6   25 1
    14    6   26 1
    15    7    8 2
    16    7    9 1
    17    9   10 2
    18    9   11 am
    19   11   12 1
    20   11   27 1
    21   12   16 1
    22   12   13 1
    23   12   17 1
    24   13   14 1
    25   13   28 1
    26   13   29 1
    27   14   15 1
    28   14   30 1
    29   14   31 1
    30   15   16 1
    31   16   32 1
    32   16   33 1
    33   17   18 2
    34   17   19 1
@<TRIPOS>MOLECULE
ZINC16900820
   35    36     0     0     0
SMALL
USER_CHARGES

@<TRIPOS>ATOM
      1 C1         -0.0221    1.7812    0.0118 C.2       1 <0>        -0.2577
      2 C2          1.3069    2.0517    0.0006 C.2       1 <0>         0.1362
      3 N1          2.1286    1.0194   -0.0128 N.2       1 <0>        -0.4543
      4 C3          1.6719   -0.2137   -0.0151 C.2       1 <0>         0.2027
      5 S1          0.0021   -0.0041    0.0020 S.3       1 <0>         0.1533
      6 N2          2.3951   -1.4051   -0.0288 N.am      1 <0>        -0.4658
      7 C4          3.7334   -1.4402   -0.0365 C.2       1 <0>         0.5133
      8 O1          4.4613   -0.4708   -0.0323 O.2       1 <0>        -0.3991
      9 C5          4.1935   -2.8816   -0.0508 C.3       1 <0>        -0.1239
     10 C6          2.8751   -3.6819   -0.0499 C.3       1 <0>        -0.0862
     11 H1          2.8050   -4.3046    0.8419 H         1 <0>         0.1528
     12 C7          1.8087   -2.6086   -0.0296 C.2       1 <0>         0.5296
     13 O2          0.6129   -2.8070   -0.0185 O.2       1 <0>        -0.4433
     14 S2          2.7439   -4.6975   -1.5473 S.3       1 <0>        -0.2141
     15 C8          1.2287   -5.6618   -1.2920 C.3       1 <0>        -0.1087
     16 C9          0.9956   -6.5740   -2.4980 C.3       1 <0>        -0.0287
     17 H2          0.9816   -5.9755   -3.4090 H         1 <0>         0.1439
     18 C10        -0.3247   -7.2839   -2.3431 C.2       1 <0>         0.4963
     19 O3         -1.3675   -6.6596   -2.4395 O.co2     1 <0>        -0.6225
     20 O4         -0.3500   -8.4825   -2.1213 O.co2     1 <0>        -0.6679
     21 N3          2.0775   -7.5643   -2.5793 N.4       1 <0>        -0.6125
     22 C11         1.8220    3.4679    0.0028 C.3       1 <0>        -0.1250
     23 C12         2.7706    3.6556    1.1587 C.2       1 <0>         0.5009
     24 O5          3.0064    2.7255    1.9110 O.co2     1 <0>        -0.6771
     25 O6          3.3022    4.7374    1.3416 O.co2     1 <0>        -0.7057
     26 H3         -0.8630    2.4588    0.0273 H         1 <0>         0.1971
     27 H4          4.7692   -3.0916   -0.9522 H         1 <0>         0.1336
     28 H5          4.7792   -3.1062    0.8407 H         1 <0>         0.1422
     29 H6          1.3313   -6.2682   -0.3922 H         1 <0>         0.1068
     30 H7          0.3819   -4.9848   -1.1794 H         1 <0>         0.1422
     31 H8          2.9615   -7.0890   -2.6831 H         1 <0>         0.4172
     32 H9          2.0904   -8.1183   -1.7361 H         1 <0>         0.4325
     33 H10         2.3455    3.6655   -0.9326 H         1 <0>         0.0787
     34 H11         0.9851    4.1588    0.1038 H         1 <0>         0.0793
     35 H12         1.9237   -8.1659   -3.3747 H         1 <0>         0.4342
@<TRIPOS>BOND
     1    1    5 1
     2    1    2 2
     3    1   26 1
     4    2    3 1
     5    2   22 1
     6    3    4 2
     7    4    5 1
     8    4    6 1
     9    6   12 am
    10    6    7 am
    11    7    8 2
    12    7    9 1
    13    9   10 1
    14    9   27 1
    15    9   28 1
    16   10   11 1
    17   10   12 1
    18   10   14 1
    19   12   13 2
    20   14   15 1
    21   15   16 1
    22   15   29 1
    23   15   30 1
    24   16   17 1
    25   16   18 1
    26   16   21 1
    27   18   19 2
    28   18   20 1
    29   21   31 1
    30   21   32 1
    31   21   35 1
    32   22   23 1
    33   22   33 1
    34   22   34 1
    35   23   24 2
    36   23   25 1
@<TRIPOS>MOLECULE
ZINC33509467
   40    40     0     0     0
SMALL
USER_CHARGES
(2S)-4-amino-4-oxo-2-[[(2S)-2-(2-oxo-1-pyridyl)pentanoyl]amino]butanoic acid
@<TRIPOS>ATOM
      1 C1          2.5962    4.7448   -3.7414 C.3       1 <0>        -0.1509
      2 C2          2.5224    3.8589   -2.4962 C.3       1 <0>        -0.1203
      3 C3          2.4935    4.7390   -1.2450 C.3       1 <0>        -0.1328
      4 C4          2.4197    3.8530    0.0002 C.3       1 <0>         0.1146
      5 H1          3.2277    3.1066    0.0025 H         1 <0>         0.1129
      6 C5          2.5150    4.7124    1.2345 C.2       1 <0>         0.5234
      7 O1          1.6094    4.7175    2.0412 O.2       1 <0>        -0.5260
      8 N1          3.6066    5.4752    1.4419 N.am      1 <0>        -0.6957
      9 C6          3.6992    6.3106    2.6418 C.3       1 <0>         0.1259
     10 H2          3.1972    5.7730    3.4597 H         1 <0>         0.0924
     11 C7          5.1709    6.5654    2.9735 C.3       1 <0>        -0.1319
     12 C8          5.8355    5.2639    3.3416 C.2       1 <0>         0.5156
     13 O2          5.1950    4.2339    3.3389 O.2       1 <0>        -0.5437
     14 N2          7.1415    5.2444    3.6738 N.am      1 <0>        -0.8846
     15 C9          3.0054    7.6252    2.3934 C.2       1 <0>         0.4568
     16 O3          2.4868    7.8420    1.3239 O.co2     1 <0>        -0.6147
     17 O4          2.9636    8.5552    3.3604 O.co2     1 <0>        -0.7712
     18 N3          1.1476    3.1266    0.0079 N.am      1 <0>        -0.4795
     19 C10         1.1499    1.7690    0.0006 C.2       1 <0>         0.1394
     20 C11        -0.0126    1.0758    0.0080 C.2       1 <0>        -0.2453
     21 C12        -1.2358    1.7608    0.0175 C.2       1 <0>        -0.0285
     22 C13        -1.2361    3.1247    0.0303 C.2       1 <0>        -0.2346
     23 C14        -0.0109    3.8130    0.0227 C.2       1 <0>         0.5159
     24 O5          0.0033    5.0335    0.0292 O.2       1 <0>        -0.5098
     25 H3          2.6170    4.1120   -4.6409 H         1 <0>         0.0517
     26 H4          3.5094    5.3567   -3.7024 H         1 <0>         0.0565
     27 H5          1.7152    5.4026   -3.7761 H         1 <0>         0.0568
     28 H6          1.6092    3.2470   -2.5352 H         1 <0>         0.0579
     29 H7          3.4033    3.2011   -2.4615 H         1 <0>         0.0599
     30 H8          3.4067    5.3509   -1.2060 H         1 <0>         0.0849
     31 H9          1.6126    5.3968   -1.2797 H         1 <0>         0.1042
     32 H10         4.4280    5.4705    0.7103 H         1 <0>         0.3996
     33 H11         5.6745    6.9992    2.0970 H         1 <0>         0.0920
     34 H12         5.2403    7.2648    3.8197 H         1 <0>         0.1157
     35 H13         7.6265    4.2944    3.9425 H         1 <0>         0.4111
     36 H14         7.7224    6.1785    3.6763 H         1 <0>         0.4175
     37 H15         2.0894    1.2364   -0.0116 H         1 <0>         0.1548
     38 H16         0.0021   -0.0041    0.0020 H         1 <0>         0.1393
     39 H17        -2.1674    1.2145    0.0185 H         1 <0>         0.1280
     40 H18        -2.1683    3.6701    0.0418 H         1 <0>         0.1431
@<TRIPOS>BOND
     1    1    2 1
     2    1   25 1
     3    1   26 1
     4    1   27 1
     5    2    3 1
     6    2   28 1
     7    2   29 1
     8    3    4 1
     9    3   30 1
    10    3   31 1
    11    4    5 1
    12    4    6 1
    13    4   18 1
    14    6    7 2
    15    6    8 am
    16    8    9 1
    17    8   32 1
    18    9   10 1
    19    9   11 1
    20    9   15 1
    21   11   12 1
    22   11   33 1
    23   11   34 1
    24   12   13 2
    25   12   14 am
    26   14   35 1
    27   14   36 1
    28   15   16 2
    29   15   17 1
    30   18   23 am
    31   18   19 1
    32   19   20 2
    33   19   37 1
    34   20   21 1
    35   20   38 1
    36   21   22 2
    37   21   39 1
    38   22   23 1
    39   22   40 1
    40   23   24 2
@<TRIPOS>MOLECULE
ZINC36983445
   35    35     0     0     0
SMALL
USER_CHARGES

@<TRIPOS>ATOM
      1 C1         -0.0167    1.3782    0.0096 C.ar      1 <0>        -0.0755
      2 C2          1.1703    2.0860    0.0021 C.ar      1 <0>        -0.1494
      3 C3          2.3786    1.4101   -0.0131 C.ar      1 <0>         0.1007
      4 C4          2.3962    0.0256   -0.0207 C.ar      1 <0>        -0.1520
      5 C5          1.2079   -0.6800   -0.0132 C.ar      1 <0>        -0.0783
      6 C6          0.0021   -0.0041    0.0020 C.ar      1 <0>        -0.0928
      7 C7         -1.2930   -0.7747    0.0103 C.3       1 <0>        -0.6026
      8 S1         -1.8290   -1.0747   -1.6966 S.o2      1 <0>         2.6077
      9 O1         -2.1970    0.1499   -2.3164 O.2       1 <0>        -0.9296
     10 O2         -0.9345   -1.9721   -2.3399 O.2       1 <0>        -0.9658
     11 N1         -3.2462   -1.9195   -1.5553 N.pl3     1 <0>        -1.0845
     12 C8         -4.4192   -1.2860   -0.9477 C.3       1 <0>         0.0819
     13 H1         -4.0955   -0.4915   -0.2753 H         1 <0>         0.0751
     14 C9         -5.2116   -2.3304   -0.1590 C.3       1 <0>        -0.0930
     15 C10        -4.3680   -2.8309    1.0153 C.3       1 <0>        -0.1461
     16 C11        -5.1486   -3.8596    1.7922 C.2       1 <0>         0.5146
     17 O3         -6.2693   -4.1626    1.4412 O.2       1 <0>        -0.5361
     18 N2         -4.6013   -4.4428    2.8769 N.am      1 <0>        -0.8632
     19 C12        -5.2926   -0.7041   -2.0292 C.2       1 <0>         0.4901
     20 O4         -5.0674   -0.9622   -3.1993 O.co2     1 <0>        -0.6735
     21 O5         -6.2243    0.0247   -1.7340 O.co2     1 <0>        -0.6957
     22 F1          3.5396    2.1009   -0.0209 F         1 <0>        -0.1390
     23 H2         -0.9592    1.9052    0.0260 H         1 <0>         0.1441
     24 H3          1.1554    3.1659    0.0077 H         1 <0>         0.1417
     25 H4          3.3381   -0.5027   -0.0329 H         1 <0>         0.1404
     26 H5          1.2213   -1.7599   -0.0195 H         1 <0>         0.1408
     27 H6         -1.1453   -1.7280    0.5176 H         1 <0>         0.1402
     28 H7         -2.0553   -0.1984    0.5345 H         1 <0>         0.1421
     29 H8         -3.2998   -2.8338   -1.8749 H         1 <0>         0.4135
     30 H9         -6.1298   -1.8806    0.2189 H         1 <0>         0.0887
     31 H10        -5.4590   -3.1677   -0.8115 H         1 <0>         0.0746
     32 H11        -3.4499   -3.2806    0.6374 H         1 <0>         0.0919
     33 H12        -4.1206   -1.9935    1.6678 H         1 <0>         0.0927
     34 H13        -3.7050   -4.2004    3.1576 H         1 <0>         0.3990
     35 H14        -5.1037   -5.1049    3.3770 H         1 <0>         0.3973
@<TRIPOS>BOND
     1    1    6 ar
     2    1    2 ar
     3    1   23 1
     4    2    3 ar
     5    2   24 1
     6    3    4 ar
     7    3   22 1
     8    4    5 ar
     9    4   25 1
    10    5    6 ar
    11    5   26 1
    12    6    7 1
    13    7    8 1
    14    7   27 1
    15    7   28 1
    16    8    9 2
    17    8   10 2
    18    8   11 1
    19   11   12 1
    20   11   29 1
    21   12   13 1
    22   12   14 1
    23   12   19 1
    24   14   15 1
    25   14   30 1
    26   14   31 1
    27   15   16 1
    28   15   32 1
    29   15   33 1
    30   16   17 2
    31   16   18 am
    32   18   34 1
    33   18   35 1
    34   19   20 2
    35   19   21 1
@<TRIPOS>MOLECULE
ZINC16949218
   40    41     0     0     0
SMALL
USER_CHARGES

@<TRIPOS>ATOM
      1 C1         -0.2484    1.6025    0.2422 C.3       1 <0>        -0.1529
      2 C2         -0.3839    0.0812    0.3340 C.3       1 <0>         0.0609
      3 O1          0.4580   -0.4097    1.3790 O.3       1 <0>        -0.3498
      4 C3          0.4556   -1.7403    1.5924 C.2       1 <0>         0.5093
      5 O2         -0.2423   -2.4638    0.9098 O.2       1 <0>        -0.5003
      6 C4          1.3000   -2.3183    2.6543 C.ar      1 <0>        -0.1415
      7 C5          2.0993   -1.4864    3.4444 C.ar      1 <0>        -0.0267
      8 C6          2.8862   -2.0289    4.4346 C.ar      1 <0>        -0.1663
      9 C7          2.8873   -3.4046    4.6498 C.ar      1 <0>         0.1896
     10 C8          2.0927   -4.2357    3.8643 C.ar      1 <0>        -0.1360
     11 C9          1.2986   -3.6986    2.8769 C.ar      1 <0>        -0.0202
     12 N1          3.6840   -3.9498    5.6510 N.pl3     1 <0>        -0.4939
     13 N2          3.6861   -5.2241    5.8514 N.2       1 <0>        -0.0768
     14 C10         4.3415   -5.7268    6.8709 C.2       1 <0>         0.0302
     15 C11         4.6416   -7.1528    7.1303 C.2       1 <0>         0.3877
     16 N3          4.3021   -8.1664    6.3815 N.2       1 <0>        -0.7125
     17 N4          5.3479   -7.2071    8.3123 N.2       1 <0>        -0.4724
     18 N5          5.5242   -5.9243    8.8316 N.pl3     1 <0>        -0.6692
     19 C12         4.9441   -4.9881    8.0033 C.cat     1 <0>         0.4316
     20 N6          4.9267   -3.6957    8.1844 N.pl3     1 <0>        -0.7615
     21 S1          6.3231   -5.5755   10.2396 S.o2      1 <0>         2.5950
     22 O3          7.3192   -6.5829   10.3504 O.2       1 <0>        -0.8859
     23 O4          6.6869   -4.2070   10.1206 O.2       1 <0>        -0.9501
     24 C13         5.0795   -5.7803   11.5442 C.3       1 <0>        -0.6501
     25 H1          0.7878    1.8626    0.0263 H         1 <0>         0.0674
     26 H2         -0.8907    1.9770   -0.5549 H         1 <0>         0.0816
     27 H3         -0.5460    2.0516    1.1897 H         1 <0>         0.0671
     28 H4         -1.4202   -0.1789    0.5498 H         1 <0>         0.0699
     29 H5         -0.0864   -0.3679   -0.6136 H         1 <0>         0.0701
     30 H6          2.0994   -0.4194    3.2775 H         1 <0>         0.1500
     31 H7          3.5038   -1.3869    5.0452 H         1 <0>         0.1391
     32 H8          2.0963   -5.3024    4.0331 H         1 <0>         0.1563
     33 H9          0.6789   -4.3433    2.2712 H         1 <0>         0.1502
     34 H10         4.2381   -3.3718    6.1985 H         1 <0>         0.3793
     35 H11         4.5495   -9.0671    6.6431 H         1 <0>         0.3422
     36 H12         4.3932   -3.1316    7.6029 H         1 <0>         0.4202
     37 H13         4.7081   -6.8050   11.5346 H         1 <0>         0.1493
     38 H14         5.5308   -5.5665   12.5131 H         1 <0>         0.1480
     39 H15         4.2524   -5.0924   11.3690 H         1 <0>         0.1323
     40 H16         5.4473   -3.2993    8.9004 H         1 <0>         0.4389
@<TRIPOS>BOND
     1    1    2 1
     2    1   25 1
     3    1   26 1
     4    1   27 1
     5    2    3 1
     6    2   28 1
     7    2   29 1
     8    3    4 1
     9    4    5 2
    10    4    6 1
    11    6   11 ar
    12    6    7 ar
    13    7    8 ar
    14    7   30 1
    15    8    9 ar
    16    8   31 1
    17    9   10 ar
    18    9   12 1
    19   10   11 ar
    20   10   32 1
    21   11   33 1
    22   12   13 1
    23   12   34 1
    24   13   14 2
    25   14   19 1
    26   14   15 1
    27   15   16 2
    28   15   17 1
    29   16   35 1
    30   17   18 1
    31   18   19 1
    32   18   21 1
    33   19   20 2
    34   20   36 1
    35   20   40 1
    36   21   22 2
    37   21   23 2
    38   21   24 1
    39   24   37 1
    40   24   38 1
    41   24   39 1
@<TRIPOS>MOLECULE
ZINC49594188
   33    33     0     0     0
SMALL
USER_CHARGES

@<TRIPOS>ATOM
      1 C1         -0.0169    1.3967    0.0097 C.ar      1 <0>        -0.0641
      2 C2          1.1650    2.1052    0.0022 C.ar      1 <0>        -0.1560
      3 C3          2.3793    1.4389   -0.0134 C.ar      1 <0>         0.1437
      4 C4          2.4130    0.0387   -0.0213 C.ar      1 <0>        -0.1747
      5 C5          1.2225   -0.6828   -0.0133 C.ar      1 <0>        -0.0584
      6 C6          0.0021   -0.0041    0.0020 C.ar      1 <0>        -0.0467
      7 C7         -1.2601   -0.7579    0.0105 C.2       1 <0>        -0.1257
      8 C8         -2.4408   -0.0993    0.0258 C.2       1 <0>        -0.1508
      9 C9         -3.6555   -0.8249    0.0340 C.2       1 <0>         0.4980
     10 O1         -3.6374   -2.0498    0.0273 O.co2     1 <0>        -0.6927
     11 O2         -4.7253   -0.2281    0.0479 O.co2     1 <0>        -0.6945
     12 C10         3.7087   -0.6706   -0.0385 C.2       1 <0>         0.5643
     13 O3          4.7474   -0.0390   -0.0458 O.2       1 <0>        -0.5221
     14 N1          3.7393   -2.0180   -0.0460 N.am      1 <0>        -0.7236
     15 C11         5.0242   -2.7215   -0.0631 C.3       1 <0>         0.1348
     16 C12         4.7788   -4.2317   -0.0686 C.3       1 <0>        -0.6510
     17 S1          6.3699   -5.1027   -0.0897 S.o2      1 <0>         2.6295
     18 O4          7.0291   -4.8879   -1.3301 O.2       1 <0>        -0.9558
     19 O5          7.0546   -4.9011    1.1390 O.2       1 <0>        -0.9532
     20 N2          5.9746   -6.7109   -0.0943 N.pl3     1 <0>        -1.2481
     21 F1          3.5334    2.1411   -0.0216 F         1 <0>        -0.1196
     22 H1         -0.9601    1.9226    0.0261 H         1 <0>         0.1441
     23 H2          1.1445    3.1850    0.0083 H         1 <0>         0.1430
     24 H3          1.2426   -1.7626   -0.0193 H         1 <0>         0.1359
     25 H4         -1.2441   -1.8378    0.0046 H         1 <0>         0.1328
     26 H5         -2.4568    0.9805    0.0318 H         1 <0>         0.1025
     27 H6          2.9105   -2.5220   -0.0402 H         1 <0>         0.4061
     28 H7          5.5805   -2.4405   -0.9573 H         1 <0>         0.0874
     29 H8          5.5988   -2.4500    0.8225 H         1 <0>         0.0872
     30 H9          4.2226   -4.5127    0.8256 H         1 <0>         0.1436
     31 H10         4.2042   -4.5031   -0.9542 H         1 <0>         0.1462
     32 H11         6.5609   -7.3532   -0.5238 H         1 <0>         0.4224
     33 H12         5.1567   -7.0105    0.3326 H         1 <0>         0.4153
@<TRIPOS>BOND
     1    1    6 ar
     2    1    2 ar
     3    1   22 1
     4    2    3 ar
     5    2   23 1
     6    3    4 ar
     7    3   21 1
     8    4    5 ar
     9    4   12 1
    10    5    6 ar
    11    5   24 1
    12    6    7 1
    13    7    8 2
    14    7   25 1
    15    8    9 1
    16    8   26 1
    17    9   10 2
    18    9   11 1
    19   12   13 2
    20   12   14 am
    21   14   15 1
    22   14   27 1
    23   15   16 1
    24   15   28 1
    25   15   29 1
    26   16   17 1
    27   16   30 1
    28   16   31 1
    29   17   18 2
    30   17   19 2
    31   17   20 1
    32   20   32 1
    33   20   33 1
@<TRIPOS>MOLECULE
ZINC09042238
   49    51     0     0     0
SMALL
USER_CHARGES

@<TRIPOS>ATOM
      1 C1         -0.0173    1.4248    0.0099 C.3       1 <0>         0.0324
      2 O1          0.0021   -0.0041    0.0020 O.3       1 <0>        -0.3925
      3 C2          0.6518   -0.5703   -1.1379 C.3       1 <0>         0.0692
      4 C3          0.6131   -2.0967   -1.0411 C.3       1 <0>        -0.1272
      5 C4          1.3087   -2.7029   -2.2615 C.3       1 <0>         0.1173
      6 N1          1.2717   -4.1645   -2.1688 N.am      1 <0>        -0.5644
      7 C5          2.2763   -4.8146   -1.5436 C.2       1 <0>         0.5791
      8 O2          3.2110   -4.2062   -1.0560 O.2       1 <0>        -0.5747
      9 C6          2.2042   -6.2834   -1.4704 C.2       1 <0>        -0.4039
     10 C7          3.1910   -7.0259   -0.8477 C.2       1 <0>         0.3015
     11 C8          3.2233   -8.5381   -0.7184 C.3       1 <0>        -0.0865
     12 C9          4.3053   -8.7513    0.3679 C.3       1 <0>         0.0868
     13 H1          3.8541   -8.8314    1.3569 H         1 <0>         0.0809
     14 N2          5.1049   -7.5099    0.2496 N.3       1 <0>        -0.4405
     15 N3          4.2953   -6.5357   -0.2544 N.pl3     1 <0>        -0.5360
     16 C10         5.1445   -9.9649    0.0616 C.ar      1 <0>        -0.0366
     17 C11         6.1704   -9.8790   -0.8612 C.ar      1 <0>        -0.1070
     18 C12         6.9431  -10.9895   -1.1457 C.ar      1 <0>        -0.1088
     19 C13         6.6905  -12.1919   -0.5051 C.ar      1 <0>         0.0744
     20 C14         5.6582  -12.2782    0.4241 C.ar      1 <0>         0.1012
     21 C15         4.8906  -11.1601    0.7082 C.ar      1 <0>        -0.1832
     22 O3          5.4064  -13.4561    1.0555 O.3       1 <0>        -0.3090
     23 C16         4.3314  -13.4707    1.9969 C.3       1 <0>         0.0238
     24 O4          7.4494  -13.2853   -0.7841 O.3       1 <0>        -0.4868
     25 C17         1.0293   -6.9273   -2.0921 C.2       1 <0>         0.5623
     26 N4          0.1091   -6.1444   -2.6794 N.2       1 <0>        -0.6752
     27 C18         0.2246   -4.8405   -2.7085 C.2       1 <0>         0.6349
     28 O5         -0.7472   -4.1296   -3.3129 O.3       1 <0>        -0.6690
     29 O6          0.8981   -8.1396   -2.0731 O.2       1 <0>        -0.5673
     30 H2          1.0053    1.8021    0.0021 H         1 <0>         0.0381
     31 H3         -0.5445    1.7859   -0.8732 H         1 <0>         0.0400
     32 H4         -0.5275    1.7763    0.9067 H         1 <0>         0.0820
     33 H5          0.1385   -0.2506   -2.0447 H         1 <0>         0.0527
     34 H6          1.6883   -0.2344   -1.1694 H         1 <0>         0.0479
     35 H7          1.1264   -2.4164   -0.1342 H         1 <0>         0.0664
     36 H8         -0.4234   -2.4326   -1.0095 H         1 <0>         0.0786
     37 H9          0.7954   -2.3833   -3.1684 H         1 <0>         0.0930
     38 H10         2.3452   -2.3671   -2.2930 H         1 <0>         0.0764
     39 H11         2.2583   -8.9197   -0.3850 H         1 <0>         0.1212
     40 H12         3.5211   -9.0017   -1.6589 H         1 <0>         0.1145
     41 H13         5.4872   -7.2394    1.1433 H         1 <0>         0.3440
     42 H14         4.4932   -5.5883   -0.1900 H         1 <0>         0.4415
     43 H15         6.3683   -8.9424   -1.3613 H         1 <0>         0.1405
     44 H16         7.7434  -10.9199   -1.8676 H         1 <0>         0.1368
     45 H17         4.0912  -11.2235    1.4317 H         1 <0>         0.1336
     46 H18         3.4027  -13.2046    1.4920 H         1 <0>         0.0588
     47 H19         4.2384  -14.4680    2.4268 H         1 <0>         0.1001
     48 H20         4.5330  -12.7505    2.7899 H         1 <0>         0.0545
     49 H21         8.2301  -13.3763   -0.2208 H         1 <0>         0.3841
@<TRIPOS>BOND
     1    1    2 1
     2    1   30 1
     3    1   31 1
     4    1   32 1
     5    2    3 1
     6    3    4 1
     7    3   33 1
     8    3   34 1
     9    4    5 1
    10    4   35 1
    11    4   36 1
    12    5    6 1
    13    5   37 1
    14    5   38 1
    15    6   27 1
    16    6    7 am
    17    7    8 2
    18    7    9 1
    19    9   10 2
    20    9   25 1
    21   10   15 1
    22   10   11 1
    23   11   12 1
    24   11   39 1
    25   11   40 1
    26   12   13 1
    27   12   14 1
    28   12   16 1
    29   14   15 1
    30   14   41 1
    31   15   42 1
    32   16   21 ar
    33   16   17 ar
    34   17   18 ar
    35   17   43 1
    36   18   19 ar
    37   18   44 1
    38   19   20 ar
    39   19   24 1
    40   20   21 ar
    41   20   22 1
    42   21   45 1
    43   22   23 1
    44   23   46 1
    45   23   47 1
    46   23   48 1
    47   24   49 1
    48   25   26 1
    49   25   29 2
    50   26   27 2
    51   27   28 1
@<TRIPOS>MOLECULE
ZINC13234834
   47    49     0     0     0
SMALL
USER_CHARGES
(2S)-2-[[2-[(3-fluorophenyl)amino]-2-oxo-ethyl]carbamoylamino]-3-(1H-indol-3-yl)propanoic acid
@<TRIPOS>ATOM
      1 C1          3.8599   -2.5921    2.7359 C.ar      1 <0>        -0.1487
      2 C2          3.9068   -2.4679    4.1179 C.ar      1 <0>        -0.1035
      3 C3          4.8189   -1.6274    4.7172 C.ar      1 <0>        -0.1336
      4 C4          5.6954   -0.8858    3.9315 C.ar      1 <0>         0.0934
      5 C5          5.6420   -1.0132    2.5316 C.ar      1 <0>        -0.0931
      6 C6          4.7143   -1.8766    1.9455 C.ar      1 <0>        -0.0682
      7 C7          6.6764   -0.1201    2.0042 C.2       1 <0>        -0.1499
      8 C8          7.2594    0.4712    3.0589 C.2       1 <0>         0.0453
      9 N1          6.6863    0.0259    4.2189 N.pl3     1 <0>        -0.5979
     10 H1          6.9404    0.3100    5.1109 H         1 <0>         0.4119
     11 C9          7.0171    0.0984    0.5525 C.3       1 <0>        -0.0402
     12 C10         6.0818    1.1559   -0.0373 C.3       1 <0>         0.1291
     13 H2          6.1354    2.0640    0.5632 H         1 <0>         0.0877
     14 C11         6.5001    1.4636   -1.4520 C.2       1 <0>         0.4574
     15 O1          5.7293    1.2783   -2.3637 O.co2     1 <0>        -0.6275
     16 N2          4.7074    0.6486   -0.0338 N.am      1 <0>        -0.7053
     17 C12         3.6711    1.5102   -0.0157 C.2       1 <0>         0.7165
     18 O2          3.8770    2.7085   -0.0021 O.2       1 <0>        -0.5959
     19 N3          2.4067    1.0436   -0.0125 N.am      1 <0>        -0.7437
     20 C13         1.2804    1.9801    0.0073 C.3       1 <0>         0.1282
     21 C14        -0.0143    1.2088    0.0068 C.2       1 <0>         0.5132
     22 O3          0.0023   -0.0038   -0.0084 O.2       1 <0>        -0.5097
     23 N4         -1.1906    1.8666    0.0178 N.am      1 <0>        -0.6718
     24 C15        -2.3910    1.1552   -0.0859 C.ar      1 <0>         0.1783
     25 C16        -3.4683    1.7044   -0.7696 C.ar      1 <0>        -0.1556
     26 C17        -4.6511    0.9992   -0.8743 C.ar      1 <0>        -0.0718
     27 C18        -4.7678   -0.2494   -0.2918 C.ar      1 <0>        -0.1721
     28 C19        -3.6978   -0.7986    0.3948 C.ar      1 <0>         0.1178
     29 C20        -2.5092   -0.0981    0.4989 C.ar      1 <0>        -0.1593
     30 F1         -3.8147   -2.0185    0.9634 F         1 <0>        -0.1366
     31 H3          3.1426   -3.2598    2.2821 H         1 <0>         0.1197
     32 H4          3.2251   -3.0403    4.7295 H         1 <0>         0.1197
     33 H5          4.8461   -1.5361    5.7930 H         1 <0>         0.1141
     34 H6          4.6721   -1.9783    0.8711 H         1 <0>         0.1172
     35 H7          8.0623    1.1911    3.0007 H         1 <0>         0.1712
     36 H8          6.8978   -0.8374    0.0065 H         1 <0>         0.0687
     37 H9          8.0492    0.4389    0.4688 H         1 <0>         0.0966
     38 H10         4.5432   -0.3073   -0.0446 H         1 <0>         0.3862
     39 H11         2.2425    0.0876   -0.0233 H         1 <0>         0.4032
     40 H12         1.3232    2.6186   -0.8751 H         1 <0>         0.1016
     41 H13         1.3359    2.5963    0.9046 H         1 <0>         0.0982
     42 H14        -1.2050    2.8332    0.0977 H         1 <0>         0.4184
     43 H15        -3.3800    2.6813   -1.2215 H         1 <0>         0.1345
     44 H16        -5.4873    1.4251   -1.4088 H         1 <0>         0.1371
     45 H17        -5.6951   -0.7971   -0.3720 H         1 <0>         0.1354
     46 H18        -1.6745   -0.5259    1.0343 H         1 <0>         0.1529
     47 O4          7.7290    1.9437   -1.6991 O.co2     1 <0>        -0.7689
@<TRIPOS>BOND
     1    1    6 ar
     2    1    2 ar
     3    1   31 1
     4    2    3 ar
     5    2   32 1
     6    3    4 ar
     7    3   33 1
     8    4    9 1
     9    4    5 ar
    10    5    6 ar
    11    5    7 1
    12    6   34 1
    13    7    8 2
    14    7   11 1
    15    8    9 1
    16    8   35 1
    17    9   10 1
    18   11   12 1
    19   11   36 1
    20   11   37 1
    21   12   13 1
    22   12   14 1
    23   12   16 1
    24   14   15 2
    25   14   47 1
    26   16   17 am
    27   16   38 1
    28   17   18 2
    29   17   19 am
    30   19   20 1
    31   19   39 1
    32   20   21 1
    33   20   40 1
    34   20   41 1
    35   21   22 2
    36   21   23 am
    37   23   24 1
    38   23   42 1
    39   24   29 ar
    40   24   25 ar
    41   25   26 ar
    42   25   43 1
    43   26   27 ar
    44   26   44 1
    45   27   28 ar
    46   27   45 1
    47   28   29 ar
    48   28   30 1
    49   29   46 1
@<TRIPOS>MOLECULE
ZINC31170258
   55    55     0     0     0
SMALL
USER_CHARGES
2-[(1S,2S,3S,4S,6R)-6-[(3R)-3,4-dihydroxy-2-methylene-butanoyl]oxy-2-hydroxy-3-[1-(hydroxymethyl)vinyl]-4-methyl-4-vinyl-cyclohexyl]prop-2-enoic acid
@<TRIPOS>ATOM
      1 C1          3.7879    2.0246    1.0697 C.3       1 <0>        -0.1723
      2 C2          3.1834    2.5531   -0.2327 C.3       1 <0>        -0.0069
      3 C3          2.1047    1.5855   -0.7237 C.3       1 <0>        -0.1441
      4 C4          1.0075    1.4646    0.3357 C.3       1 <0>         0.0932
      5 H1          0.2420    0.7381    0.0255 H         1 <0>         0.0896
      6 C5          0.3844    2.8397    0.5838 C.3       1 <0>        -0.0688
      7 H2         -0.0642    3.2202   -0.3457 H         1 <0>         0.1456
      8 C6          1.4630    3.8073    1.0749 C.3       1 <0>         0.1416
      9 H3          1.0350    4.7905    1.3200 H         1 <0>         0.0540
     10 C7          2.5603    3.9283    0.0155 C.3       1 <0>        -0.0565
     11 H4          3.3330    4.6331    0.3562 H         1 <0>         0.0719
     12 C8          1.9648    4.4488   -1.2673 C.2       1 <0>        -0.1482
     13 C9          1.0356    3.7618   -1.8842 C.2       1 <0>        -0.1823
     14 C10         2.4383    5.7597   -1.8403 C.3       1 <0>         0.1307
     15 O1          1.8208    5.9749   -3.1109 O.3       1 <0>        -0.5933
     16 O2          2.0277    3.3137    2.2913 O.3       1 <0>        -0.5617
     17 C11        -0.6964    2.7206    1.6273 C.2       1 <0>        -0.1477
     18 C12        -0.4076    2.2338    2.8318 C.2       1 <0>        -0.1709
     19 C13        -2.0691    3.1419    1.3149 C.2       1 <0>         0.4836
     20 O3         -2.9192    3.1358    2.1834 O.co2     1 <0>        -0.6402
     21 O4         -2.3854    3.5351    0.0649 O.co2     1 <0>        -0.7628
     22 O5          1.5812    0.9630    1.5716 O.3       1 <0>        -0.2970
     23 C14         0.9472   -0.0668    2.1670 C.2       1 <0>         0.4927
     24 O6         -0.1200   -0.4554    1.7342 O.2       1 <0>        -0.5047
     25 C15         1.5463   -0.7198    3.3392 C.2       1 <0>        -0.1487
     26 C16         0.8847   -1.6840    3.9745 C.2       1 <0>        -0.0863
     27 C17         2.9099   -0.2974    3.8221 C.3       1 <0>         0.1695
     28 H5          3.2732   -0.9873    4.5980 H         1 <0>         0.0588
     29 C18         2.8468    1.1439    4.3315 C.3       1 <0>         0.0293
     30 O7          4.1012    1.4975    4.9175 O.3       1 <0>        -0.6059
     31 O8          3.8441   -0.3811    2.7439 O.3       1 <0>        -0.5760
     32 C19         4.2641    2.6722   -1.2761 C.2       1 <0>        -0.1330
     33 C20         4.1732    1.9947   -2.3936 C.2       1 <0>        -0.2078
     34 H6          4.2359    1.0359    0.8913 H         1 <0>         0.0486
     35 H7          2.9990    1.9377    1.8313 H         1 <0>         0.1560
     36 H8          4.5634    2.7203    1.4228 H         1 <0>         0.0270
     37 H9          1.6700    1.9654   -1.6600 H         1 <0>         0.1128
     38 H10         2.5527    0.5968   -0.9021 H         1 <0>         0.0699
     39 H11         0.6010    4.1418   -2.8205 H         1 <0>         0.1094
     40 H12         0.6900    2.8050   -1.4659 H         1 <0>         0.1398
     41 H13         2.1665    6.5779   -1.1572 H         1 <0>         0.0456
     42 H14         3.5310    5.7327   -1.9635 H         1 <0>         0.0432
     43 H15         2.0461    6.8859   -3.6847 H         1 <0>         0.4025
     44 H16         2.8243    3.8791    2.7971 H         1 <0>         0.3797
     45 H17        -1.1964    2.1468    3.5935 H         1 <0>         0.0899
     46 H18         0.6199    1.9184    3.0657 H         1 <0>         0.1182
     47 H19         1.3333   -2.1727    4.8520 H         1 <0>         0.1258
     48 H20        -0.1107   -1.9922    3.6222 H         1 <0>         0.1299
     49 H21         2.6308    1.8205    3.4915 H         1 <0>         0.1096
     50 H22         2.0517    1.2315    5.0866 H         1 <0>         0.0403
     51 H23         4.2466    2.5021    5.3413 H         1 <0>         0.4072
     52 H24         4.8977   -0.1104    2.9068 H         1 <0>         0.4064
     53 H25         5.1293    3.3281   -1.0994 H         1 <0>         0.1006
     54 H26         4.9621    2.0817   -3.1552 H         1 <0>         0.0897
     55 H27         3.3080    1.3388   -2.5703 H         1 <0>         0.1026
@<TRIPOS>BOND
     1    1    2 1
     2    1   34 1
     3    1   35 1
     4    1   36 1
     5    2   10 1
     6    2    3 1
     7    2   32 1
     8    3    4 1
     9    3   37 1
    10    3   38 1
    11    4    5 1
    12    4    6 1
    13    4   22 1
    14    6    7 1
    15    6    8 1
    16    6   17 1
    17    8    9 1
    18    8   10 1
    19    8   16 1
    20   10   11 1
    21   10   12 1
    22   12   13 2
    23   12   14 1
    24   13   39 1
    25   13   40 1
    26   14   15 1
    27   14   41 1
    28   14   42 1
    29   15   43 1
    30   16   44 1
    31   17   18 2
    32   17   19 1
    33   18   45 1
    34   18   46 1
    35   19   20 2
    36   19   21 1
    37   22   23 1
    38   23   24 2
    39   23   25 1
    40   25   26 2
    41   25   27 1
    42   26   47 1
    43   26   48 1
    44   27   28 1
    45   27   29 1
    46   27   31 1
    47   29   30 1
    48   29   49 1
    49   29   50 1
    50   30   51 1
    51   31   52 1
    52   32   33 2
    53   32   53 1
    54   33   54 1
    55   33   55 1
@<TRIPOS>MOLECULE
ZINC37503101
   32    32     0     0     0
SMALL
USER_CHARGES

@<TRIPOS>ATOM
      1 C1         -0.0169    1.3932    0.0097 C.ar      1 <0>        -0.0228
      2 C2          1.1694    2.0957    0.0021 C.ar      1 <0>        -0.1404
      3 C3          2.3783    1.4194   -0.0135 C.ar      1 <0>         0.0366
      4 C4          2.4041    0.0340   -0.0212 C.ar      1 <0>        -0.6835
      5 C5          1.2254   -0.6803   -0.0138 C.ar      1 <0>         0.0240
      6 C6          0.0021   -0.0041    0.0020 C.ar      1 <0>        -0.1429
      7 C7         -1.2629   -0.7619    0.0105 C.2       1 <0>         0.5205
      8 O1         -2.3317   -0.1675    0.0243 O.co2     1 <0>        -0.6795
      9 O2         -1.2433   -1.9847    0.0038 O.co2     1 <0>        -0.6742
     10 S1          3.9471   -0.8164   -0.0411 S.o2      1 <0>         2.6965
     11 O3          4.7454   -0.2332    0.9797 O.2       1 <0>        -0.9490
     12 O4          3.6454   -2.2046   -0.0726 O.2       1 <0>        -0.9535
     13 N1          4.6844   -0.4594   -1.4803 N.pl3     1 <0>        -1.1132
     14 C8          5.1006    0.9152   -1.7690 C.3       1 <0>         0.1073
     15 C9          6.0665    0.9171   -2.9556 C.3       1 <0>        -0.1156
     16 C10         6.5012    2.3527   -3.2571 C.3       1 <0>        -0.1428
     17 C11         7.4525    2.3545   -4.4259 C.2       1 <0>         0.5171
     18 O5          7.7532    1.3104   -4.9646 O.2       1 <0>        -0.5419
     19 N2          7.9692    3.5165   -4.8724 N.am      1 <0>        -0.8593
     20 Cl1         3.8674    2.3115   -0.0241 Cl        1 <0>        -0.0633
     21 H1         -0.9586    1.9216    0.0260 H         1 <0>         0.1462
     22 H2          1.1562    3.1756    0.0081 H         1 <0>         0.1372
     23 H3          1.2468   -1.7601   -0.0205 H         1 <0>         0.1581
     24 H4          4.8406   -1.1605   -2.1322 H         1 <0>         0.4201
     25 H5          4.2247    1.5165   -2.0125 H         1 <0>         0.0747
     26 H6          5.5981    1.3354   -0.8949 H         1 <0>         0.0838
     27 H7          6.9424    0.3158   -2.7120 H         1 <0>         0.0797
     28 H8          5.5690    0.4969   -3.8297 H         1 <0>         0.0797
     29 H9          5.6253    2.9540   -3.5006 H         1 <0>         0.1000
     30 H10         6.9987    2.7728   -2.3830 H         1 <0>         0.0983
     31 H11         7.7287    4.3516   -4.4415 H         1 <0>         0.4020
     32 H12         8.5815    3.5177   -5.6247 H         1 <0>         0.4003
@<TRIPOS>BOND
     1    1    6 ar
     2    1    2 ar
     3    1   21 1
     4    2    3 ar
     5    2   22 1
     6    3    4 ar
     7    3   20 1
     8    4    5 ar
     9    4   10 1
    10    5    6 ar
    11    5   23 1
    12    6    7 1
    13    7    8 2
    14    7    9 1
    15   10   11 2
    16   10   12 2
    17   10   13 1
    18   13   14 1
    19   13   24 1
    20   14   15 1
    21   14   25 1
    22   14   26 1
    23   15   16 1
    24   15   27 1
    25   15   28 1
    26   16   17 1
    27   16   29 1
    28   16   30 1
    29   17   18 2
    30   17   19 am
    31   19   31 1
    32   19   32 1
@<TRIPOS>MOLECULE
ZINC56891516
   46    47     0     0     0
SMALL
USER_CHARGES

@<TRIPOS>ATOM
      1 C1          1.6659    1.0219    0.6667 C.3       1 <0>         0.0287
      2 O1          1.1119   -0.2742    0.4317 O.3       1 <0>        -0.2910
      3 C2          1.1603   -0.7445   -0.8435 C.ar      1 <0>         0.0730
      4 C3          1.7334    0.0223   -1.8438 C.ar      1 <0>        -0.1831
      5 C4          1.7822   -0.4598   -3.1449 C.ar      1 <0>         0.0443
      6 C5          1.2568   -1.7099   -3.4430 C.ar      1 <0>        -0.0781
      7 C6          0.6845   -2.4765   -2.4460 C.ar      1 <0>        -0.2273
      8 C7          0.6385   -2.0007   -1.1439 C.ar      1 <0>         0.2664
      9 N1          0.0626   -2.7812   -0.1319 N.2       1 <0>        -1.0808
     10 S1         -0.5575   -4.2745   -0.4896 S.o2      1 <0>         2.5218
     11 O2         -1.6372   -4.0158   -1.3766 O.2       1 <0>        -1.0315
     12 O3          0.5619   -5.0396   -0.9147 O.2       1 <0>        -1.0304
     13 C8         -1.1848   -4.9092    1.0897 C.3       1 <0>        -0.6356
     14 N2          2.3617    0.3160   -4.1579 N.am      1 <0>        -0.6488
     15 C9          3.0477   -0.2794   -5.1536 C.2       1 <0>         0.4974
     16 O4          3.0930   -1.4897   -5.2197 O.2       1 <0>        -0.5241
     17 C10         3.7584    0.5587   -6.1849 C.3       1 <0>         0.1230
     18 N3          4.4244   -0.3177   -7.1517 N.am      1 <0>        -0.7307
     19 C11         5.1270    0.2145   -8.1713 C.2       1 <0>         0.7118
     20 O5          5.2082    1.4220   -8.2887 O.2       1 <0>        -0.5928
     21 N4          5.7397   -0.5918   -9.0607 N.am      1 <0>        -0.7450
     22 C12         6.5035   -0.0133  -10.1689 C.3       1 <0>         0.2240
     23 C13         7.0835   -1.1203  -11.0111 C.2       1 <0>        -0.0387
     24 C14         6.4901   -1.6943  -12.0730 C.2       1 <0>        -0.1818
     25 C15         7.3819   -2.6782  -12.5584 C.2       1 <0>        -0.2186
     26 C16         8.4669   -2.6465  -11.7640 C.2       1 <0>        -0.0284
     27 O6          8.2831   -1.6970  -10.8321 O.3       1 <0>        -0.1709
     28 H1          2.7215    1.0205    0.3949 H         1 <0>         0.0410
     29 H2          1.1362    1.7585    0.0626 H         1 <0>         0.0413
     30 H3          1.5627    1.2753    1.7218 H         1 <0>         0.0851
     31 H4          2.1418    0.9949   -1.6122 H         1 <0>         0.1150
     32 H5          1.2952   -2.0835   -4.4556 H         1 <0>         0.1209
     33 H6          0.2760   -3.4486   -2.6800 H         1 <0>         0.1118
     34 H7         -1.9511   -4.2358    1.4734 H         1 <0>         0.1149
     35 H8         -1.6141   -5.8996    0.9385 H         1 <0>         0.1000
     36 H9         -0.3660   -4.9738    1.8063 H         1 <0>         0.1149
     37 H10         2.2691    1.2814   -4.1425 H         1 <0>         0.4028
     38 H11         3.0348    1.1879   -6.7032 H         1 <0>         0.0977
     39 H12         4.5006    1.1876   -5.6933 H         1 <0>         0.0983
     40 H13         4.3597   -1.2810   -7.0580 H         1 <0>         0.4102
     41 H14         5.6750   -1.5550   -8.9670 H         1 <0>         0.4019
     42 H15         5.8450    0.6024  -10.7817 H         1 <0>         0.0994
     43 H16         7.3107    0.6021   -9.7717 H         1 <0>         0.0848
     44 H17         5.5185   -1.4507  -12.4769 H         1 <0>         0.1517
     45 H18         7.2223   -3.3303  -13.4044 H         1 <0>         0.1506
     46 H19         9.3396   -3.2752  -11.8615 H         1 <0>         0.2048
@<TRIPOS>BOND
     1    1    2 1
     2    1   28 1
     3    1   29 1
     4    1   30 1
     5    2    3 1
     6    3    8 ar
     7    3    4 ar
     8    4    5 ar
     9    4   31 1
    10    5    6 ar
    11    5   14 1
    12    6    7 ar
    13    6   32 1
    14    7    8 ar
    15    7   33 1
    16    8    9 1
    17    9   10 1
    18   10   11 2
    19   10   12 2
    20   10   13 1
    21   13   34 1
    22   13   35 1
    23   13   36 1
    24   14   15 am
    25   14   37 1
    26   15   16 2
    27   15   17 1
    28   17   18 1
    29   17   38 1
    30   17   39 1
    31   18   19 am
    32   18   40 1
    33   19   20 2
    34   19   21 am
    35   21   22 1
    36   21   41 1
    37   22   23 1
    38   22   42 1
    39   22   43 1
    40   23   27 1
    41   23   24 2
    42   24   25 1
    43   24   44 1
    44   25   26 2
    45   25   45 1
    46   26   27 1
    47   26   46 1
@<TRIPOS>MOLECULE
ZINC66588119
   42    43     0     0     0
SMALL
USER_CHARGES

@<TRIPOS>ATOM
      1 C1         -0.0178    1.4608    0.0101 C.3       1 <0>         0.0876
      2 N1          0.0021   -0.0041    0.0020 N.pl3     1 <0>        -1.1249
      3 S1          0.7421   -0.8289    1.2326 S.o2      1 <0>         2.7112
      4 O1          0.5703   -2.2120    0.9554 O.2       1 <0>        -0.9831
      5 O2          2.0239   -0.2396    1.4033 O.2       1 <0>        -0.9655
      6 C2         -0.1663   -0.4937    2.7047 C.ar      1 <0>        -0.7876
      7 C3         -0.8333   -1.5167    3.3520 C.ar      1 <0>         0.0521
      8 C4         -1.5461   -1.2581    4.5064 C.ar      1 <0>        -0.2962
      9 C5         -1.5942    0.0324    5.0199 C.ar      1 <0>         0.3507
     10 C6         -0.9250    1.0608    4.3710 C.ar      1 <0>        -0.2789
     11 C7         -0.2064    0.7959    3.2156 C.ar      1 <0>         0.2430
     12 O3          0.4542    1.7996    2.5808 O.3       1 <0>        -0.3188
     13 C8          0.3694    3.1019    3.1628 C.3       1 <0>         0.0275
     14 N2         -2.3153    0.2943    6.1870 N.2       1 <0>        -1.0756
     15 S2         -3.1138   -0.9335    6.9599 S.o2      1 <0>         2.6030
     16 O4         -4.1513   -1.3568    6.0860 O.2       1 <0>        -1.0185
     17 O5         -2.1179   -1.8224    7.4469 O.2       1 <0>        -1.0168
     18 C9         -3.9000   -0.2349    8.3736 C.ar      1 <0>        -0.5923
     19 C10        -3.2255   -0.1810    9.5805 C.ar      1 <0>        -0.0302
     20 C11        -3.8353    0.3647   10.6912 C.ar      1 <0>        -0.0825
     21 C12        -5.1355    0.8631   10.5954 C.ar      1 <0>        -0.1067
     22 C13        -5.8103    0.8057    9.3750 C.ar      1 <0>        -0.1117
     23 C14        -5.1869    0.2626    8.2705 C.ar      1 <0>        -0.0317
     24 C15        -5.7953    1.4489   11.7818 C.2       1 <0>         0.5650
     25 O6         -5.2054    1.4972   12.8434 O.2       1 <0>        -0.5375
     26 N3         -7.0509    1.9293   11.6860 N.am      1 <0>        -0.8502
     27 H1          1.0048    1.8381    0.0023 H         1 <0>         0.0629
     28 H2         -0.5450    1.8219   -0.8730 H         1 <0>         0.0665
     29 H3         -0.5280    1.8123    0.9069 H         1 <0>         0.0740
     30 H4         -0.4183   -0.4908   -0.7241 H         1 <0>         0.4109
     31 H5         -0.7973   -2.5201    2.9542 H         1 <0>         0.1323
     32 H6         -2.0667   -2.0591    5.0101 H         1 <0>         0.1083
     33 H7         -0.9607    2.0646    4.7678 H         1 <0>         0.1284
     34 H8          0.7778    3.0757    4.1731 H         1 <0>         0.0594
     35 H9          0.9396    3.8077    2.5587 H         1 <0>         0.0960
     36 H10        -0.6737    3.4158    3.2006 H         1 <0>         0.0579
     37 H11        -2.2196   -0.5673    9.6533 H         1 <0>         0.1463
     38 H12        -3.3079    0.4058   11.6327 H         1 <0>         0.1422
     39 H13        -6.8165    1.1896    9.2943 H         1 <0>         0.1312
     40 H14        -5.7063    0.2215    7.3245 H         1 <0>         0.1449
     41 H15        -7.5217    1.8908   10.8388 H         1 <0>         0.4026
     42 H16        -7.4838    2.3136   12.4644 H         1 <0>         0.4049
@<TRIPOS>BOND
     1    1    2 1
     2    1   27 1
     3    1   28 1
     4    1   29 1
     5    2    3 1
     6    2   30 1
     7    3    4 2
     8    3    5 2
     9    3    6 1
    10    6   11 ar
    11    6    7 ar
    12    7    8 ar
    13    7   31 1
    14    8    9 ar
    15    8   32 1
    16    9   10 ar
    17    9   14 1
    18   10   11 ar
    19   10   33 1
    20   11   12 1
    21   12   13 1
    22   13   34 1
    23   13   35 1
    24   13   36 1
    25   14   15 1
    26   15   16 2
    27   15   17 2
    28   15   18 1
    29   18   23 ar
    30   18   19 ar
    31   19   20 ar
    32   19   37 1
    33   20   21 ar
    34   20   38 1
    35   21   22 ar
    36   21   24 1
    37   22   23 ar
    38   22   39 1
    39   23   40 1
    40   24   25 2
    41   24   26 am
    42   26   41 1
    43   26   42 1
@<TRIPOS>MOLECULE
ZINC13058805
   51    52     0     0     0
SMALL
USER_CHARGES
2-[[4-[N-[[2-[(2-methoxyphenyl)amino]acetyl]amino]-C-methyl-carbonimidoyl]phenyl]sulfonylamino]acetic acid
@<TRIPOS>ATOM
      1 C1         -1.3172    6.1934   -5.2589 C.3       1 <0>        -0.1592
      2 C2         -1.8478    4.7861   -5.1633 C.2       1 <0>         0.1368
      3 N1         -2.3895    4.2252   -6.2004 N.2       1 <0>        -0.2222
      4 N2         -2.4810    4.9278   -7.4091 N.am      1 <0>        -0.5806
      5 C3         -3.0436    4.3451   -8.4863 C.2       1 <0>         0.5254
      6 O1         -3.4708    3.2123   -8.4094 O.2       1 <0>        -0.4917
      7 C4         -3.1421    5.1009   -9.7864 C.3       1 <0>         0.1162
      8 N3         -3.7877    4.2564  -10.7945 N.pl3     1 <0>        -0.7330
      9 C5         -3.9912    4.7448  -12.0903 C.ar      1 <0>         0.1965
     10 C6         -3.5875    6.0303  -12.4204 C.ar      1 <0>        -0.1711
     11 C7         -3.7853    6.5085  -13.7021 C.ar      1 <0>        -0.1057
     12 C8         -4.3940    5.7123  -14.6544 C.ar      1 <0>        -0.1397
     13 C9         -4.8038    4.4318  -14.3311 C.ar      1 <0>        -0.1625
     14 C10        -4.6049    3.9433  -13.0504 C.ar      1 <0>         0.0587
     15 O2         -5.0083    2.6843  -12.7307 O.3       1 <0>        -0.3202
     16 C11        -5.6302    1.9199  -13.7656 C.3       1 <0>         0.0318
     17 C12        -1.7515    4.0465   -3.8910 C.ar      1 <0>        -0.0023
     18 C13        -2.2422    2.7419   -3.7988 C.ar      1 <0>        -0.1017
     19 C14        -2.1491    2.0563   -2.6055 C.ar      1 <0>        -0.0207
     20 C15        -1.5709    2.6577   -1.5016 C.ar      1 <0>        -0.6579
     21 C16        -1.0874    3.9515   -1.5842 C.ar      1 <0>        -0.0219
     22 C17        -1.1694    4.6474   -2.7724 C.ar      1 <0>        -0.1141
     23 S1         -1.4563    1.7742    0.0186 S.o2      1 <0>         2.6923
     24 O3         -2.4755    0.7845   -0.0090 O.2       1 <0>        -0.9659
     25 O4         -1.3685    2.7488    1.0490 O.2       1 <0>        -0.9603
     26 N4         -0.0111    0.9658    0.0074 N.pl3     1 <0>        -1.0925
     27 C18         1.2475    1.7155   -0.0006 C.3       1 <0>         0.0731
     28 C19         2.3848    0.7915    0.3513 C.2       1 <0>         0.4645
     29 O5          2.1665   -0.3736    0.5848 O.co2     1 <0>        -0.6279
     30 H1         -0.2711    6.1673   -5.5639 H         1 <0>         0.0928
     31 H2         -1.8965    6.7509   -5.9949 H         1 <0>         0.0707
     32 H3         -1.4003    6.6798   -4.2870 H         1 <0>         0.0946
     33 H4         -2.1395    5.8336   -7.4706 H         1 <0>         0.3889
     34 H5         -3.7327    6.0048   -9.6373 H         1 <0>         0.0944
     35 H6         -2.1424    5.3720  -10.1257 H         1 <0>         0.0950
     36 H7         -4.0741    3.3588  -10.5639 H         1 <0>         0.4182
     37 H8         -3.1155    6.6558  -11.6773 H         1 <0>         0.1270
     38 H9         -3.4672    7.5081  -13.9591 H         1 <0>         0.1230
     39 H10        -4.5502    6.0916  -15.6535 H         1 <0>         0.1210
     40 H11        -5.2793    3.8125  -15.0773 H         1 <0>         0.1275
     41 H12        -4.9361    1.8026  -14.5978 H         1 <0>         0.0535
     42 H13        -5.9025    0.9380  -13.3785 H         1 <0>         0.0990
     43 H14        -6.5264    2.4360  -14.1100 H         1 <0>         0.0533
     44 H15        -2.6938    2.2714   -4.6596 H         1 <0>         0.1432
     45 H16        -2.5282    1.0476   -2.5328 H         1 <0>         0.1459
     46 H17        -0.6410    4.4162   -0.7175 H         1 <0>         0.1486
     47 H18        -0.7876    5.6556   -2.8367 H         1 <0>         0.1398
     48 H19         0.0021   -0.0041    0.0020 H         1 <0>         0.4251
     49 H20         1.4141    2.1353   -0.9927 H         1 <0>         0.0687
     50 H21         1.1948    2.5218    0.7309 H         1 <0>         0.0850
     51 O6          3.6405    1.2630    0.4053 O.co2     1 <0>        -0.7595
@<TRIPOS>BOND
     1    1    2 1
     2    1   30 1
     3    1   31 1
     4    1   32 1
     5    2    3 2
     6    2   17 1
     7    3    4 1
     8    4    5 am
     9    4   33 1
    10    5    6 2
    11    5    7 1
    12    7    8 1
    13    7   34 1
    14    7   35 1
    15    8    9 1
    16    8   36 1
    17    9   14 ar
    18    9   10 ar
    19   10   11 ar
    20   10   37 1
    21   11   12 ar
    22   11   38 1
    23   12   13 ar
    24   12   39 1
    25   13   14 ar
    26   13   40 1
    27   14   15 1
    28   15   16 1
    29   16   41 1
    30   16   42 1
    31   16   43 1
    32   17   22 ar
    33   17   18 ar
    34   18   19 ar
    35   18   44 1
    36   19   20 ar
    37   19   45 1
    38   20   21 ar
    39   20   23 1
    40   21   22 ar
    41   21   46 1
    42   22   47 1
    43   23   24 2
    44   23   25 2
    45   23   26 1
    46   26   27 1
    47   26   48 1
    48   27   28 1
    49   27   49 1
    50   27   50 1
    51   28   29 2
    52   28   51 1
@<TRIPOS>MOLECULE
ZINC13235716
   47    49     0     0     0
SMALL
USER_CHARGES
(2S)-2-[[2-[(2-chloro-4-fluoro-phenyl)amino]-2-oxo-ethyl]carbamoylamino]-3-(1H-indol-3-yl)propanoic acid
@<TRIPOS>ATOM
      1 C1          3.0193    2.8079    3.8582 C.ar      1 <0>        -0.1490
      2 C2          3.2691    1.9421    4.9143 C.ar      1 <0>        -0.1038
      3 C3          2.4573    0.8515    5.1358 C.ar      1 <0>        -0.1335
      4 C4          1.3823    0.6067    4.2873 C.ar      1 <0>         0.0935
      5 C5          1.1351    1.4855    3.2170 C.ar      1 <0>        -0.0930
      6 C6          1.9665    2.5889    3.0154 C.ar      1 <0>        -0.0681
      7 C7         -0.0470    0.9619    2.5282 C.2       1 <0>        -0.1498
      8 C8         -0.4219   -0.1492    3.1816 C.2       1 <0>         0.0455
      9 N1          0.4204   -0.3772    4.2355 N.pl3     1 <0>        -0.5979
     10 H1          0.3502   -1.1209    4.8542 H         1 <0>         0.4120
     11 C9         -0.7121    1.5546    1.3127 C.3       1 <0>        -0.0402
     12 C10        -0.0016    1.0608    0.0509 C.3       1 <0>         0.1291
     13 H2          0.0178   -0.0290    0.0477 H         1 <0>         0.0877
     14 C11        -0.7401    1.5536   -1.1669 C.2       1 <0>         0.4572
     15 O1         -0.1779    2.2607   -1.9693 O.co2     1 <0>        -0.6274
     16 N2          1.3705    1.5737    0.0307 N.am      1 <0>        -0.7051
     17 C12         2.3259    0.9158   -0.6556 C.2       1 <0>         0.7163
     18 O2          2.0489   -0.1034   -1.2580 O.2       1 <0>        -0.5951
     19 N3          3.5882    1.3877   -0.6742 N.am      1 <0>        -0.7433
     20 C13         4.6266    0.6726   -1.4202 C.3       1 <0>         0.1279
     21 C14         5.9378    1.4022   -1.2809 C.2       1 <0>         0.5175
     22 O3          5.9989    2.4195   -0.6232 O.2       1 <0>        -0.5102
     23 N4          7.0426    0.9243   -1.8871 N.am      1 <0>        -0.6690
     24 C15         8.2393    1.6508   -1.8362 C.ar      1 <0>         0.1532
     25 C16         8.5591    2.3849   -0.7021 C.ar      1 <0>        -0.0812
     26 C17         9.7394    3.1006   -0.6536 C.ar      1 <0>        -0.1271
     27 C18        10.6041    3.0867   -1.7353 C.ar      1 <0>         0.0951
     28 C19        10.2879    2.3556   -2.8677 C.ar      1 <0>        -0.1277
     29 C20         9.1105    1.6332   -2.9183 C.ar      1 <0>        -0.0392
     30 Cl1         8.7173    0.7107   -4.3354 Cl        1 <0>        -0.0471
     31 F1         11.7578    3.7880   -1.6856 F         1 <0>        -0.1332
     32 H3          3.6621    3.6616    3.7018 H         1 <0>         0.1195
     33 H4          4.1050    2.1286    5.5722 H         1 <0>         0.1195
     34 H5          2.6611    0.1826    5.9589 H         1 <0>         0.1140
     35 H6          1.7783    3.2668    2.1960 H         1 <0>         0.1172
     36 H7         -1.2640   -0.7708    2.9152 H         1 <0>         0.1712
     37 H8         -0.6538    2.6420    1.3606 H         1 <0>         0.0687
     38 H9         -1.7576    1.2476    1.2847 H         1 <0>         0.0965
     39 H10         1.5915    2.3868    0.5112 H         1 <0>         0.3861
     40 H11         3.8091    2.2008   -0.1936 H         1 <0>         0.4031
     41 H12         4.7288   -0.3374   -1.0232 H         1 <0>         0.0993
     42 H13         4.3486    0.6227   -2.4730 H         1 <0>         0.1026
     43 H14         7.0092    0.0774   -2.3588 H         1 <0>         0.4184
     44 H15         7.8855    2.3960    0.1421 H         1 <0>         0.1615
     45 H16         9.9884    3.6714    0.2288 H         1 <0>         0.1468
     46 H17        10.9636    2.3461   -3.7101 H         1 <0>         0.1501
     47 O4         -2.0223    1.2070   -1.3601 O.co2     1 <0>        -0.7688
@<TRIPOS>BOND
     1    1    6 ar
     2    1    2 ar
     3    1   32 1
     4    2    3 ar
     5    2   33 1
     6    3    4 ar
     7    3   34 1
     8    4    9 1
     9    4    5 ar
    10    5    6 ar
    11    5    7 1
    12    6   35 1
    13    7    8 2
    14    7   11 1
    15    8    9 1
    16    8   36 1
    17    9   10 1
    18   11   12 1
    19   11   37 1
    20   11   38 1
    21   12   13 1
    22   12   14 1
    23   12   16 1
    24   14   15 2
    25   14   47 1
    26   16   17 am
    27   16   39 1
    28   17   18 2
    29   17   19 am
    30   19   20 1
    31   19   40 1
    32   20   21 1
    33   20   41 1
    34   20   42 1
    35   21   22 2
    36   21   23 am
    37   23   24 1
    38   23   43 1
    39   24   29 ar
    40   24   25 ar
    41   25   26 ar
    42   25   44 1
    43   26   27 ar
    44   26   45 1
    45   27   28 ar
    46   27   31 1
    47   28   29 ar
    48   28   46 1
    49   29   30 1
@<TRIPOS>MOLECULE
ZINC02129977
   51    54     0     0     0
SMALL
USER_CHARGES

@<TRIPOS>ATOM
      1 C1          0.1976    1.4991   -0.1395 C.3       1 <0>        -0.1740
      2 C2          0.0002   -0.0117    0.0000 C.3       1 <0>         0.0622
      3 H1          0.3940   -0.5128   -0.8842 H         1 <0>         0.1012
      4 C3         -1.4694   -0.3158    0.1371 C.2       1 <0>         0.5245
      5 O1         -1.8963   -0.7934    1.1670 O.2       1 <0>        -0.5264
      6 N1         -2.3093   -0.0570   -0.8846 N.am      1 <0>        -0.6820
      7 C4         -3.7380   -0.3526   -0.7514 C.3       1 <0>         0.0861
      8 H2         -4.0527   -0.1688    0.2759 H         1 <0>         0.0837
      9 C5         -4.5354    0.5470   -1.6978 C.3       1 <0>        -0.0402
     10 C6         -4.3842    1.9844   -1.2710 C.2       1 <0>        -0.1525
     11 C7         -5.2191    2.6735   -0.4771 C.2       1 <0>         0.0522
     12 N2         -4.7570    3.9502   -0.3102 N.pl3     1 <0>        -0.5964
     13 H3         -5.1911    4.6350    0.2223 H         1 <0>         0.4140
     14 C8         -3.5816    4.1183   -1.0117 C.ar      1 <0>         0.0891
     15 C9         -3.2949    2.8923   -1.6387 C.ar      1 <0>        -0.0784
     16 C10        -2.1474    2.7614   -2.4236 C.ar      1 <0>        -0.0987
     17 C11        -1.2984    3.8396   -2.5758 C.ar      1 <0>         0.0730
     18 C12        -1.5833    5.0508   -1.9511 C.ar      1 <0>        -0.1256
     19 C13        -2.7161    5.1935   -1.1809 C.ar      1 <0>        -0.1146
     20 O2         -0.1792    3.7178   -3.3387 O.3       1 <0>        -0.4968
     21 C14        -3.9870   -1.7968   -1.1023 C.2       1 <0>         0.4899
     22 O3         -3.0572   -2.5128   -1.4331 O.co2     1 <0>        -0.6834
     23 O4         -5.1182   -2.2493   -1.0555 O.co2     1 <0>        -0.6959
     24 O5          0.6932   -0.4774    1.1597 O.3       1 <0>        -0.2676
     25 C15         2.0124   -0.7636    1.0159 C.ar      1 <0>         0.2039
     26 C16         2.7157   -1.3326    2.0760 C.ar      1 <0>        -0.1673
     27 C17         4.0423   -1.6257    1.9473 C.ar      1 <0>        -0.0137
     28 C18         4.7009   -1.3537    0.7426 C.ar      1 <0>        -0.2108
     29 C19         6.1235   -1.6581    0.5755 C.2       1 <0>         0.0192
     30 C20         6.7054   -1.3710   -0.6180 C.2       1 <0>        -0.2686
     31 C21         5.9384   -0.7957   -1.6518 C.2       1 <0>         0.5095
     32 O6          6.4725   -0.5434   -2.7169 O.2       1 <0>        -0.4708
     33 O7          4.6346   -0.5195   -1.4924 O.3       1 <0>        -0.2694
     34 C22         3.9959   -0.7797   -0.3316 C.ar      1 <0>         0.1934
     35 C23         2.6470   -0.4930   -0.1852 C.ar      1 <0>        -0.2404
     36 H4          1.2605    1.7191   -0.2387 H         1 <0>         0.0720
     37 H5         -0.3311    1.8544   -1.0241 H         1 <0>         0.0868
     38 H6         -0.1962    2.0002    0.7447 H         1 <0>         0.0722
     39 H7         -1.9678    0.3250   -1.7083 H         1 <0>         0.3876
     40 H8         -4.1600    0.4284   -2.7142 H         1 <0>         0.0691
     41 H9         -5.5882    0.2669   -1.6643 H         1 <0>         0.0942
     42 H10        -6.1222    2.2784   -0.0358 H         1 <0>         0.1727
     43 H11        -1.9252    1.8223   -2.9084 H         1 <0>         0.1254
     44 H12        -0.9126    5.8880   -2.0763 H         1 <0>         0.1278
     45 H13        -2.9266    6.1371   -0.6997 H         1 <0>         0.1207
     46 H14        -0.3118    3.9415   -4.2700 H         1 <0>         0.3844
     47 H15         2.2077   -1.5425    3.0057 H         1 <0>         0.1467
     48 H16         4.5824   -2.0658    2.7725 H         1 <0>         0.1465
     49 H17         6.6946   -2.0985    1.3794 H         1 <0>         0.1516
     50 H18         7.7529   -1.5826   -0.7744 H         1 <0>         0.1608
     51 H19         2.0941   -0.0560   -1.0036 H         1 <0>         0.1531
@<TRIPOS>BOND
     1    1    2 1
     2    1   36 1
     3    1   37 1
     4    1   38 1
     5    2    3 1
     6    2    4 1
     7    2   24 1
     8    4    5 2
     9    4    6 am
    10    6    7 1
    11    6   39 1
    12    7    8 1
    13    7    9 1
    14    7   21 1
    15    9   10 1
    16    9   40 1
    17    9   41 1
    18   10   15 1
    19   10   11 2
    20   11   12 1
    21   11   42 1
    22   12   13 1
    23   12   14 1
    24   14   19 ar
    25   14   15 ar
    26   15   16 ar
    27   16   17 ar
    28   16   43 1
    29   17   18 ar
    30   17   20 1
    31   18   19 ar
    32   18   44 1
    33   19   45 1
    34   20   46 1
    35   21   22 2
    36   21   23 1
    37   24   25 1
    38   25   35 ar
    39   25   26 ar
    40   26   27 ar
    41   26   47 1
    42   27   28 ar
    43   27   48 1
    44   28   34 ar
    45   28   29 1
    46   29   30 2
    47   29   49 1
    48   30   31 1
    49   30   50 1
    50   31   32 2
    51   31   33 1
    52   33   34 1
    53   34   35 ar
    54   35   51 1
@<TRIPOS>MOLECULE
ZINC13247127
   38    39     0     0     0
SMALL
USER_CHARGES

@<TRIPOS>ATOM
      1 C1         -0.0167    1.3799    0.0096 C.ar      1 <0>        -0.0188
      2 C2          1.1674    2.0949    0.0022 C.ar      1 <0>        -0.1531
      3 C3          2.3782    1.4312   -0.0134 C.ar      1 <0>         0.0469
      4 C4          2.4042    0.0327   -0.0211 C.ar      1 <0>        -0.1495
      5 C5          1.2031   -0.6814   -0.0130 C.ar      1 <0>         0.0238
      6 C6          0.0021   -0.0041    0.0020 C.ar      1 <0>        -0.6965
      7 S1         -1.5133   -0.9031    0.0122 S.o2      1 <0>         2.7000
      8 O1         -1.2217   -2.1843    0.5533 O.2       1 <0>        -0.9535
      9 O2         -2.4924   -0.0423    0.5774 O.2       1 <0>        -0.9645
     10 N1         -1.9500   -1.1445   -1.5669 N.pl3     1 <0>        -1.1181
     11 C7         -1.1176   -1.9779   -2.4379 C.3       1 <0>         0.1109
     12 C8         -1.9057   -2.3460   -3.6966 C.3       1 <0>        -0.1190
     13 C9         -1.0364   -3.2164   -4.6063 C.3       1 <0>        -0.0753
     14 C10        -1.8127   -3.5790   -5.8460 C.2       1 <0>         0.1897
     15 C11        -1.9268   -2.8146   -6.9902 C.2       1 <0>        -0.2263
     16 C12        -2.7442   -3.5382   -7.8957 C.2       1 <0>         0.3883
     17 N2         -3.0891   -4.6611   -7.3166 N.2       1 <0>        -0.3485
     18 H1         -2.6094   -5.4326   -5.4043 H         1 <0>         0.4493
     19 N3         -2.5148   -4.7074   -6.0415 N.pl3     1 <0>        -0.4463
     20 N4         -3.1151   -3.1266   -9.1769 N.pl3     1 <0>        -0.8365
     21 C13        -1.3323   -1.5322   -7.2192 C.1       1 <0>         0.2872
     22 N5         -0.8606   -0.5149   -7.4010 N.1       1 <0>        -0.4304
     23 C14         3.6925   -0.6844   -0.0382 C.2       1 <0>         0.5179
     24 O3          3.7116   -1.9073   -0.0449 O.co2     1 <0>        -0.6810
     25 O4          4.7419   -0.0563   -0.0456 O.co2     1 <0>        -0.6569
     26 Cl1         3.8635    2.3298   -0.0239 Cl        1 <0>        -0.0299
     27 H2         -0.9607    1.9042    0.0260 H         1 <0>         0.1400
     28 H3          1.1448    3.1747    0.0081 H         1 <0>         0.1355
     29 H4          1.2154   -1.7613   -0.0192 H         1 <0>         0.1516
     30 H5         -2.7570   -0.7340   -1.9150 H         1 <0>         0.4168
     31 H6         -0.2205   -1.4265   -2.7193 H         1 <0>         0.0740
     32 H7         -0.8340   -2.8872   -1.9079 H         1 <0>         0.0891
     33 H8         -2.8029   -2.8974   -3.4152 H         1 <0>         0.0790
     34 H9         -2.1894   -1.4368   -4.2266 H         1 <0>         0.0784
     35 H10        -0.1392   -2.6650   -4.8876 H         1 <0>         0.1053
     36 H11        -0.7527   -4.1257   -4.0763 H         1 <0>         0.0994
     37 H12        -2.8077   -2.2730   -9.5200 H         1 <0>         0.4123
     38 H13        -3.6803   -3.6942   -9.7240 H         1 <0>         0.4087
@<TRIPOS>BOND
     1    1    6 ar
     2    1    2 ar
     3    1   27 1
     4    2    3 ar
     5    2   28 1
     6    3    4 ar
     7    3   26 1
     8    4    5 ar
     9    4   23 1
    10    5    6 ar
    11    5   29 1
    12    6    7 1
    13    7    8 2
    14    7    9 2
    15    7   10 1
    16   10   11 1
    17   10   30 1
    18   11   12 1
    19   11   31 1
    20   11   32 1
    21   12   13 1
    22   12   33 1
    23   12   34 1
    24   13   14 1
    25   13   35 1
    26   13   36 1
    27   14   15 2
    28   14   19 1
    29   15   21 1
    30   15   16 1
    31   16   20 1
    32   16   17 2
    33   17   19 1
    34   18   19 1
    35   20   37 1
    36   20   38 1
    37   21   22 3
    38   23   24 2
    39   23   25 1
@<TRIPOS>MOLECULE
ZINC32776245
   48    48     0     0     0
SMALL
USER_CHARGES

@<TRIPOS>ATOM
      1 C1         -0.0187    1.5258    0.0104 C.3       1 <0>        -0.1657
      2 C2          0.0021   -0.0041    0.0020 C.3       1 <0>         0.1418
      3 H1         -1.0205   -0.3814    0.0098 H         1 <0>         0.0907
      4 C3          0.7421   -0.5109    1.2415 C.3       1 <0>        -0.1276
      5 C4          0.6554   -2.0374    1.2986 C.3       1 <0>        -0.1221
      6 C5          1.3954   -2.5442    2.5382 C.3       1 <0>        -0.1151
      7 C6          1.3088   -4.0707    2.5952 C.3       1 <0>        -0.0978
      8 C7          2.1520   -4.5861    3.7633 C.3       1 <0>        -0.1491
      9 C8         -0.1487   -4.4917    2.7936 C.3       1 <0>        -0.1508
     10 N1          0.6878   -0.4765   -1.2033 N.am      1 <0>        -0.7179
     11 C9          0.0062   -0.6081   -2.3585 C.2       1 <0>         0.5310
     12 O1         -1.1748   -0.3355   -2.4003 O.2       1 <0>        -0.5203
     13 C10         0.7116   -1.0941   -3.5984 C.3       1 <0>        -0.1454
     14 S1         -0.4663   -1.1636   -4.9762 S.3       1 <0>         0.0344
     15 C11         0.4982   -1.7416   -6.3328 C.ar      1 <0>         0.2382
     16 C12        -0.1018   -1.9133   -7.5926 C.ar      1 <0>        -0.1967
     17 C13         0.6894   -2.3771   -8.6645 C.ar      1 <0>         0.3499
     18 N2          0.1419   -2.5614   -9.9252 N.pl3     1 <0>        -0.8468
     19 C14         2.0320   -2.6441   -8.4244 C.ar      1 <0>        -0.3312
     20 C15         2.5482   -2.4482   -7.1500 C.ar      1 <0>         0.4759
     21 N3          1.7840   -2.0058   -6.1597 N.ar      1 <0>        -0.5844
     22 N4          3.8874   -2.7143   -6.9097 N.pl3     1 <0>        -0.8389
     23 C16        -1.4910   -1.6232   -7.7841 C.1       1 <0>         0.2608
     24 N5         -2.5930   -1.3931   -7.9360 N.1       1 <0>        -0.4173
     25 H2          1.0039    1.9031    0.0027 H         1 <0>         0.0574
     26 H3         -0.5459    1.8868   -0.8726 H         1 <0>         0.0620
     27 H4         -0.5289    1.8773    0.9072 H         1 <0>         0.0675
     28 H5          1.7879   -0.2080    1.1895 H         1 <0>         0.0689
     29 H6          0.2852   -0.0874    2.1360 H         1 <0>         0.0805
     30 H7         -0.3904   -2.3402    1.3506 H         1 <0>         0.0666
     31 H8          1.1123   -2.4609    0.4042 H         1 <0>         0.0618
     32 H9          2.4412   -2.2414    2.4861 H         1 <0>         0.0612
     33 H10         0.9385   -2.1207    3.4326 H         1 <0>         0.0625
     34 H11         1.6847   -4.4911    1.6625 H         1 <0>         0.0677
     35 H12         1.7761   -4.1657    4.6960 H         1 <0>         0.0540
     36 H13         2.0902   -5.6736    3.8039 H         1 <0>         0.0539
     37 H14         3.1903   -4.2861    3.6220 H         1 <0>         0.0533
     38 H15        -0.7495   -4.1246    1.9615 H         1 <0>         0.0566
     39 H16        -0.2105   -5.5792    2.8342 H         1 <0>         0.0527
     40 H17        -0.5246   -4.0713    3.7264 H         1 <0>         0.0540
     41 H18         1.6324   -0.6946   -1.1699 H         1 <0>         0.4019
     42 H19         1.5220   -0.4092   -3.8474 H         1 <0>         0.1240
     43 H20         1.1190   -2.0889   -3.4183 H         1 <0>         0.1239
     44 H21        -0.7967   -2.3709  -10.0789 H         1 <0>         0.4059
     45 H22         2.6678   -3.0009   -9.2212 H         1 <0>         0.1393
     46 H23         4.4548   -3.0343   -7.6284 H         1 <0>         0.4123
     47 H24         4.2569   -2.5805   -6.0229 H         1 <0>         0.4067
     48 H25         0.6974   -2.8809  -10.6533 H         1 <0>         0.4098
@<TRIPOS>BOND
     1    1    2 1
     2    1   25 1
     3    1   26 1
     4    1   27 1
     5    2    3 1
     6    2    4 1
     7    2   10 1
     8    4    5 1
     9    4   28 1
    10    4   29 1
    11    5    6 1
    12    5   30 1
    13    5   31 1
    14    6    7 1
    15    6   32 1
    16    6   33 1
    17    7    8 1
    18    7    9 1
    19    7   34 1
    20    8   35 1
    21    8   36 1
    22    8   37 1
    23    9   38 1
    24    9   39 1
    25    9   40 1
    26   10   11 am
    27   10   41 1
    28   11   12 2
    29   11   13 1
    30   13   14 1
    31   13   42 1
    32   13   43 1
    33   14   15 1
    34   15   21 ar
    35   15   16 ar
    36   16   17 ar
    37   16   23 1
    38   17   18 1
    39   17   19 ar
    40   18   44 1
    41   18   48 1
    42   19   20 ar
    43   19   45 1
    44   20   21 ar
    45   20   22 1
    46   22   46 1
    47   22   47 1
    48   23   24 3
@<TRIPOS>MOLECULE
ZINC13235139
   40    41     0     0     0
SMALL
USER_CHARGES
5-[[2-[(4R)-4-(2-carboxyethyl)-2,5-dioxo-imidazolidin-1-yl]acetyl]amino]benzene-1,3-dicarboxylic acid
@<TRIPOS>ATOM
      1 C1         -2.0610    8.3905   -5.2406 C.ar      1 <0>        -0.0366
      2 C2         -1.3442    9.3148   -4.4827 C.ar      1 <0>        -0.1298
      3 C3         -0.3021    8.8823   -3.6599 C.ar      1 <0>        -0.1038
      4 C4          0.0199    7.5347   -3.5963 C.ar      1 <0>         0.0901
      5 C5         -0.6876    6.6127   -4.3534 C.ar      1 <0>        -0.0751
      6 C6         -1.7347    7.0372   -5.1741 C.ar      1 <0>        -0.1249
      7 C7         -2.4920    6.0535   -5.9753 C.2       1 <0>         0.4969
      8 O1         -2.2070    4.8742   -5.9169 O.co2     1 <0>        -0.6358
      9 N1          1.0652    7.1048   -2.7703 N.am      1 <0>        -0.6607
     10 C8          0.9968    5.9009   -2.1683 C.2       1 <0>         0.4833
     11 O2         -0.0099    5.2312   -2.2641 O.2       1 <0>        -0.4913
     12 C9          2.1711    5.3868   -1.3760 C.3       1 <0>         0.1063
     13 N2          1.8493    4.0677   -0.8260 N.am      1 <0>        -0.5617
     14 C10         1.2748    3.8685    0.3767 C.2       1 <0>         0.5330
     15 O3          0.9384    4.7150    1.1768 O.2       1 <0>        -0.4670
     16 C11         1.1359    2.3659    0.5207 C.3       1 <0>         0.0978
     17 H1          1.7065    2.0059    1.3767 H         1 <0>         0.1243
     18 N3          1.7012    1.8440   -0.7355 N.am      1 <0>        -0.7174
     19 C12         2.0900    2.9119   -1.4554 C.2       1 <0>         0.7094
     20 O4          2.6027    2.8352   -2.5547 O.2       1 <0>        -0.5466
     21 C13        -0.3366    1.9717    0.6531 C.3       1 <0>        -0.1029
     22 C14        -0.4459    0.4540    0.8123 C.3       1 <0>        -0.1511
     23 C15        -1.8962    0.0657    0.9427 C.2       1 <0>         0.4595
     24 O5         -2.7543    0.9158    0.9115 O.co2     1 <0>        -0.6293
     25 C16        -1.6868   10.7506   -4.5495 C.2       1 <0>         0.5013
     26 O6         -1.0618   11.5555   -3.8884 O.co2     1 <0>        -0.6501
     27 H2         -2.8672    8.7223   -5.8781 H         1 <0>         0.1392
     28 H3          0.2540    9.5981   -3.0727 H         1 <0>         0.1211
     29 H4         -0.4311    5.5647   -4.3050 H         1 <0>         0.1326
     30 H5          1.8387    7.6733   -2.6313 H         1 <0>         0.4019
     31 H6          2.3895    6.0768   -0.5609 H         1 <0>         0.1223
     32 H7          3.0415    5.3065   -2.0271 H         1 <0>         0.1253
     33 H8          1.7785    0.9120   -0.9932 H         1 <0>         0.4394
     34 H9         -0.8778    2.2833   -0.2403 H         1 <0>         0.0829
     35 H10        -0.7664    2.4607    1.5273 H         1 <0>         0.0881
     36 H11        -0.0161   -0.0350   -0.0619 H         1 <0>         0.0646
     37 H12         0.0954    0.1425    1.7057 H         1 <0>         0.0653
     38 O7         -3.4986    6.4645   -6.7706 O.co2     1 <0>        -0.7611
     39 O8         -2.2346   -1.2244    1.0936 O.co2     1 <0>        -0.7831
     40 O9         -2.6922   11.1669   -5.3435 O.co2     1 <0>        -0.7565
@<TRIPOS>BOND
     1    1    6 ar
     2    1    2 ar
     3    1   27 1
     4    2    3 ar
     5    2   25 1
     6    3    4 ar
     7    3   28 1
     8    4    5 ar
     9    4    9 1
    10    5    6 ar
    11    5   29 1
    12    6    7 1
    13    7    8 2
    14    7   38 1
    15    9   10 am
    16    9   30 1
    17   10   11 2
    18   10   12 1
    19   12   13 1
    20   12   31 1
    21   12   32 1
    22   13   19 am
    23   13   14 am
    24   14   15 2
    25   14   16 1
    26   16   17 1
    27   16   18 1
    28   16   21 1
    29   18   19 am
    30   18   33 1
    31   19   20 2
    32   21   22 1
    33   21   34 1
    34   21   35 1
    35   22   23 1
    36   22   36 1
    37   22   37 1
    38   23   24 2
    39   23   39 1
    40   25   26 2
    41   25   40 1
@<TRIPOS>MOLECULE
ZINC31350399
   18    17     0     0     0
SMALL
USER_CHARGES
(2S,3R)-2,3-dinitrooxybutanedioic acid
@<TRIPOS>ATOM
      1 C1          1.2803    2.0107    0.0006 C.3       1 <0>         0.0387
      2 H1          1.9309    1.3436    0.5851 H         1 <0>         0.1153
      3 C2          1.2013    3.4082    0.6186 C.3       1 <0>         0.0387
      4 H2          0.5508    4.0754    0.0340 H         1 <0>         0.1153
      5 C3          0.7068    3.3024    2.0382 C.2       1 <0>         0.4571
      6 O1          1.4296    3.6151    2.9545 O.co2     1 <0>        -0.6181
      7 O2         -0.5366    2.8610    2.2847 O.co2     1 <0>        -0.7261
      8 O3          2.4986    4.0071    0.6094 O.3       1 <0>        -0.1507
      9 N1          2.4794    5.4229    0.6172 N.pl3     1 <0>         0.1463
     10 O4          1.4165    6.0175    0.6305 O.2       1 <0>        -0.1559
     11 O5          3.5259    6.0462    0.6105 O.3       1 <0>        -0.1065
     12 C4          1.7747    2.1164   -1.4190 C.2       1 <0>         0.4571
     13 O6          1.0519    1.8038   -2.3353 O.co2     1 <0>        -0.6181
     14 O7          3.0181    2.5579   -1.6655 O.co2     1 <0>        -0.7262
     15 O8         -0.0171    1.4118    0.0098 O.3       1 <0>        -0.1508
     16 N2          0.0021   -0.0041    0.0020 N.pl3     1 <0>         0.1463
     17 O9          1.0650   -0.5986   -0.0113 O.2       1 <0>        -0.1559
     18 O10        -1.0443   -0.6274    0.0087 O.3       1 <0>        -0.1064
@<TRIPOS>BOND
     1    1    2 1
     2    1    3 1
     3    1   12 1
     4    1   15 1
     5    3    4 1
     6    3    5 1
     7    3    8 1
     8    5    6 2
     9    5    7 1
    10    8    9 1
    11    9   10 2
    12    9   11 1
    13   12   13 2
    14   12   14 1
    15   15   16 1
    16   16   17 2
    17   16   18 1
@<TRIPOS>MOLECULE
ZINC12569840
   39    40     0     0     0
SMALL
USER_CHARGES

@<TRIPOS>ATOM
      1 C1          0.3306    1.1791    0.2434 C.3       1 <0>         0.0233
      2 O1         -0.0661   -0.1612   -0.0534 O.3       1 <0>        -0.3098
      3 C2          0.3543   -0.6817   -1.2373 C.ar      1 <0>         0.0985
      4 C3          1.1335    0.0781   -2.0874 C.ar      1 <0>        -0.1713
      5 C4          1.5645   -0.4613   -3.3056 C.ar      1 <0>        -0.0298
      6 C5          1.2027   -1.7682   -3.6546 C.ar      1 <0>        -0.1192
      7 C6          0.4252   -2.5184   -2.8000 C.ar      1 <0>        -0.0982
      8 C7          0.0033   -1.9843   -1.5898 C.ar      1 <0>         0.0798
      9 O2         -0.7584   -2.7314   -0.7487 O.3       1 <0>        -0.4863
     10 C8          2.3929    0.3412   -4.2144 C.2       1 <0>         0.0061
     11 C9          3.0824   -0.2626   -5.2158 C.2       1 <0>        -0.1697
     12 C10         3.8526    0.3376   -6.3234 C.2       1 <0>         0.5323
     13 O3          3.9507    1.5437   -6.4539 O.2       1 <0>        -0.4845
     14 N1          4.4309   -0.5016   -7.1660 N.am      1 <0>        -0.4821
     15 C11         4.3197   -1.8374   -7.0177 C.2       1 <0>         0.2165
     16 S1          4.9883   -3.0748   -7.9938 S.2       1 <0>        -0.1581
     17 S2          3.3141   -2.0031   -5.5516 S.3       1 <0>        -0.0094
     18 C12         5.2096    0.0319   -8.2864 C.3       1 <0>         0.0440
     19 H1          5.1936    1.1213   -8.2539 H         1 <0>         0.1006
     20 C13         4.6003   -0.4480   -9.6053 C.3       1 <0>        -0.1033
     21 C14         3.1998    0.1466   -9.7662 C.3       1 <0>        -0.1760
     22 C15         2.5996   -0.3261  -11.0653 C.2       1 <0>         0.4950
     23 O4          3.2334   -1.0696  -11.7947 O.co2     1 <0>        -0.6912
     24 O5          1.4804    0.0351  -11.3868 O.co2     1 <0>        -0.7186
     25 C16         6.6329   -0.4528   -8.1848 C.2       1 <0>         0.5021
     26 O6          6.8745   -1.5306   -7.6685 O.co2     1 <0>        -0.6520
     27 O7          7.5428    0.2328   -8.6189 O.co2     1 <0>        -0.6834
     28 H2          1.4187    1.2392    0.2670 H         1 <0>         0.0571
     29 H3         -0.0538    1.8503   -0.5246 H         1 <0>         0.0567
     30 H4         -0.0705    1.4702    1.2143 H         1 <0>         0.0985
     31 H5          1.4094    1.0857   -1.8135 H         1 <0>         0.1388
     32 H6          1.5329   -2.1878   -4.5934 H         1 <0>         0.1470
     33 H7          0.1467   -3.5263   -3.0702 H         1 <0>         0.1425
     34 H8         -1.7099   -2.6444   -0.8978 H         1 <0>         0.3845
     35 H9          2.4535    1.4118   -4.0862 H         1 <0>         0.1554
     36 H10         5.2295   -0.1255  -10.4348 H         1 <0>         0.0784
     37 H11         4.5347   -1.5360   -9.6006 H         1 <0>         0.0961
     38 H12         2.5706   -0.1759   -8.9367 H         1 <0>         0.0389
     39 H13         3.2653    1.2346   -9.7709 H         1 <0>         0.0510
@<TRIPOS>BOND
     1    1    2 1
     2    1   28 1
     3    1   29 1
     4    1   30 1
     5    2    3 1
     6    3    8 ar
     7    3    4 ar
     8    4    5 ar
     9    4   31 1
    10    5    6 ar
    11    5   10 1
    12    6    7 ar
    13    6   32 1
    14    7    8 ar
    15    7   33 1
    16    8    9 1
    17    9   34 1
    18   10   11 2
    19   10   35 1
    20   11   17 1
    21   11   12 1
    22   12   13 2
    23   12   14 am
    24   14   15 1
    25   14   18 1
    26   15   16 2
    27   15   17 1
    28   18   19 1
    29   18   20 1
    30   18   25 1
    31   20   21 1
    32   20   36 1
    33   20   37 1
    34   21   22 1
    35   21   38 1
    36   21   39 1
    37   22   23 2
    38   22   24 1
    39   25   26 2
    40   25   27 1
@<TRIPOS>MOLECULE
ZINC47144941
   36    39     0     0     0
SMALL
USER_CHARGES

@<TRIPOS>ATOM
      1 C1         -0.0167    1.3784    0.0096 C.ar      1 <0>        -0.0832
      2 C2          1.1695    2.0865    0.0021 C.ar      1 <0>        -0.1456
      3 C3          2.3802    1.4093   -0.0131 C.ar      1 <0>         0.0909
      4 C4          2.3963    0.0221   -0.0206 C.ar      1 <0>        -0.1411
      5 C5          1.2074   -0.6814   -0.0130 C.ar      1 <0>        -0.0759
      6 C6          0.0021   -0.0041    0.0020 C.ar      1 <0>        -0.0582
      7 C7         -1.2934   -0.7740    0.0107 C.3       1 <0>         0.0892
      8 H1         -2.1331   -0.0792    0.0227 H         1 <0>         0.0836
      9 C8         -1.3492   -1.6547    1.2233 C.2       1 <0>        -0.3174
     10 C9         -1.8036   -2.9376    1.3473 C.2       1 <0>         0.1548
     11 N1         -1.6908   -3.4561    2.5683 N.2       1 <0>        -0.6355
     12 C10        -1.1973   -2.7680    3.5725 C.2       1 <0>         0.4258
     13 O1         -1.0261   -3.1612    4.8583 O.3       1 <0>        -0.6356
     14 S1         -0.8276   -1.2793    2.8763 S.3       1 <0>        -0.0917
     15 S2         -2.5013   -3.8003   -0.0531 S.3       1 <0>        -0.0184
     16 C11        -2.7297   -2.4146   -1.1976 C.3       1 <0>        -0.1367
     17 H2         -3.5539   -1.7725   -0.8872 H         1 <0>         0.1426
     18 C12        -1.3738   -1.6471   -1.2177 C.3       1 <0>        -0.1161
     19 H3         -0.5512   -2.3623   -1.2116 H         1 <0>         0.1335
     20 C13        -1.4443   -1.0007   -2.5654 C.2       1 <0>         0.5596
     21 O2         -0.9448    0.0536   -2.8948 O.2       1 <0>        -0.4710
     22 N2         -2.1809   -1.8343   -3.3456 N.am      1 <0>        -0.5567
     23 C14        -2.8501   -2.8087   -2.6443 C.2       1 <0>         0.5705
     24 O3         -3.4105   -3.7881   -3.0873 O.2       1 <0>        -0.4562
     25 C15        -2.2727   -1.6982   -4.8014 C.3       1 <0>         0.0319
     26 C16        -1.1784   -2.5052   -5.4513 C.2       1 <0>         0.4874
     27 O4         -0.3945   -3.1355   -4.7623 O.co2     1 <0>        -0.6774
     28 O5         -1.0770   -2.5277   -6.6661 O.co2     1 <0>        -0.6977
     29 O6          3.5484    2.1036   -0.0209 O.3       1 <0>        -0.5024
     30 H4         -0.9594    1.9052    0.0259 H         1 <0>         0.1219
     31 H5          1.1543    3.1664    0.0076 H         1 <0>         0.1211
     32 H6          3.3375   -0.5074   -0.0328 H         1 <0>         0.1232
     33 H7          1.2194   -1.7613   -0.0189 H         1 <0>         0.1245
     34 H8         -3.2427   -2.0624   -5.1399 H         1 <0>         0.0854
     35 H9         -2.1625   -0.6491   -5.0759 H         1 <0>         0.0899
     36 H10         3.8951    2.3001    0.8601 H         1 <0>         0.3809
@<TRIPOS>BOND
     1    1    6 ar
     2    1    2 ar
     3    1   30 1
     4    2    3 ar
     5    2   31 1
     6    3    4 ar
     7    3   29 1
     8    4    5 ar
     9    4   32 1
    10    5    6 ar
    11    5   33 1
    12    6    7 1
    13    7    8 1
    14    7   18 1
    15    7    9 1
    16    9   14 1
    17    9   10 2
    18   10   11 1
    19   10   15 1
    20   11   12 2
    21   12   13 1
    22   12   14 1
    23   15   16 1
    24   16   17 1
    25   16   23 1
    26   16   18 1
    27   18   19 1
    28   18   20 1
    29   20   21 2
    30   20   22 am
    31   22   23 am
    32   22   25 1
    33   23   24 2
    34   25   26 1
    35   25   34 1
    36   25   35 1
    37   26   27 2
    38   26   28 1
    39   29   36 1
@<TRIPOS>MOLECULE
ZINC01683644
   29    30     0     0     0
SMALL
USER_CHARGES

@<TRIPOS>ATOM
      1 C1          0.0340    1.5512   -0.4945 C.ar      1 <0>         0.0478
      2 C2          1.1948    2.1833   -0.0170 C.ar      1 <0>        -0.1607
      3 C3          1.2499    3.5795    0.1401 C.ar      1 <0>         0.0416
      4 C4          2.3851    4.1649    0.6042 C.ar      1 <0>        -0.7333
      5 C5          3.5093    3.3963    0.9306 C.ar      1 <0>         0.2980
      6 C6          3.4893    2.0263    0.7886 C.ar      1 <0>        -0.2498
      7 C7          2.3278    1.3974    0.3114 C.ar      1 <0>         0.1155
      8 C8          2.2682    0.0017    0.1532 C.ar      1 <0>        -0.7033
      9 C9          1.1268   -0.5752   -0.3119 C.ar      1 <0>         0.0752
     10 C10         0.0127    0.1975   -0.6348 C.ar      1 <0>        -0.7159
     11 S1         -1.4453   -0.5898   -1.2339 S.o2      1 <0>         2.7085
     12 O1         -1.4857   -1.9153   -0.6359 O.2       1 <0>        -1.0690
     13 O2         -2.5711    0.2302   -0.8140 O.2       1 <0>        -1.0749
     14 O3         -1.3278   -0.6506   -2.6825 O.3       1 <0>        -1.0726
     15 S2          3.6644   -0.9954    0.5544 S.o2      1 <0>         2.7094
     16 O4          3.6224   -1.2226    1.9907 O.2       1 <0>        -1.0717
     17 O5          3.5284   -2.2342   -0.1958 O.2       1 <0>        -1.0725
     18 O6          4.8465   -0.2465    0.1571 O.3       1 <0>        -1.0658
     19 N1          4.6623    4.0250    1.4044 N.pl3     1 <0>        -0.8695
     20 S3          2.4435    5.9153    0.7975 S.o2      1 <0>         2.7090
     21 O7          2.1445    6.1964    2.1930 O.2       1 <0>        -1.0716
     22 O8          3.7880    6.3357    0.4345 O.2       1 <0>        -1.0693
     23 O9          1.4401    6.4726   -0.0962 O.3       1 <0>        -1.0704
     24 H1         -0.8386    2.1363   -0.7446 H         1 <0>         0.1337
     25 H2          0.3913    4.1858   -0.1080 H         1 <0>         0.1368
     26 H3          4.3603    1.4402    1.0421 H         1 <0>         0.1578
     27 H4          1.0836   -1.6475   -0.4329 H         1 <0>         0.1381
     28 H5          4.6400    4.9658    1.6395 H         1 <0>         0.4043
     29 H6          5.4858    3.5211    1.4984 H         1 <0>         0.3946
@<TRIPOS>BOND
     1    1   10 ar
     2    1    2 ar
     3    1   24 1
     4    2    7 ar
     5    2    3 ar
     6    3    4 ar
     7    3   25 1
     8    4    5 ar
     9    4   20 1
    10    5    6 ar
    11    5   19 1
    12    6    7 ar
    13    6   26 1
    14    7    8 ar
    15    8    9 ar
    16    8   15 1
    17    9   10 ar
    18    9   27 1
    19   10   11 1
    20   11   12 2
    21   11   13 2
    22   11   14 1
    23   15   16 2
    24   15   17 2
    25   15   18 1
    26   19   28 1
    27   19   29 1
    28   20   21 2
    29   20   22 2
    30   20   23 1
@<TRIPOS>MOLECULE
ZINC03999427
   30    32     0     0     0
SMALL
USER_CHARGES
BLAHdicarboxylic acid
@<TRIPOS>ATOM
      1 C1         -3.6012    5.2991   -1.1915 C.ar      1 <0>        -0.2053
      2 C2         -2.8660    4.2608   -0.6430 C.ar      1 <0>        -0.0791
      3 C3         -1.4954    4.3452   -0.5343 C.ar      1 <0>        -0.1627
      4 C4         -0.8147    5.4770   -0.9934 C.ar      1 <0>         0.1991
      5 C5         -1.5723    6.5362   -1.5364 C.ar      1 <0>        -0.1827
      6 C6         -2.9594    6.4352   -1.6329 C.ar      1 <0>        -0.0444
      7 C7         -0.8933    7.7567   -2.0043 C.2       1 <0>         0.4916
      8 O1          0.3156    7.8489   -1.9220 O.co2     1 <0>        -0.6064
      9 N1          0.5606    5.6275   -0.9537 N.pl3     1 <0>        -0.5893
     10 C8          1.3272    4.5669   -0.2811 C.3       1 <0>         0.0593
     11 H1          1.2913    4.7105    0.7988 H         1 <0>         0.0474
     12 C9          0.6803    3.2474   -0.6481 C.3       1 <0>        -0.0690
     13 H2          0.5842    3.1377   -1.7283 H         1 <0>         0.0838
     14 C10        -0.7080    3.2504    0.0646 C.3       1 <0>        -0.0340
     15 H3         -0.5433    3.5133    1.1095 H         1 <0>         0.0697
     16 C11        -1.1108    1.8237    0.0167 C.2       1 <0>        -0.1449
     17 C12        -0.0126    1.0758    0.0080 C.2       1 <0>        -0.1733
     18 C13         1.2287    1.9716    0.0009 C.3       1 <0>        -0.0758
     19 C14         2.7573    4.5872   -0.7559 C.2       1 <0>         0.4719
     20 O2          3.0463    5.1623   -1.7785 O.co2     1 <0>        -0.6054
     21 H4         -4.6751    5.2180   -1.2726 H         1 <0>         0.1046
     22 H5         -3.3742    3.3733   -0.2962 H         1 <0>         0.1037
     23 H6         -3.5315    7.2487   -2.0541 H         1 <0>         0.1212
     24 H7          0.8147    6.5375   -0.5995 H         1 <0>         0.3871
     25 H8         -2.1256    1.4549   -0.0052 H         1 <0>         0.1213
     26 H9          0.0021   -0.0041    0.0020 H         1 <0>         0.1201
     27 H10         1.5757    2.1670    1.0156 H         1 <0>         0.0803
     28 H11         2.0230    1.5345   -0.6043 H         1 <0>         0.0698
     29 O3         -1.6127    8.7710   -2.5237 O.co2     1 <0>        -0.7778
     30 O4          3.7101    3.9664   -0.0428 O.co2     1 <0>        -0.7808
@<TRIPOS>BOND
     1    1    6 ar
     2    1    2 ar
     3    1   21 1
     4    2    3 ar
     5    2   22 1
     6    3   14 1
     7    3    4 ar
     8    4    5 ar
     9    4    9 1
    10    5    6 ar
    11    5    7 1
    12    6   23 1
    13    7    8 2
    14    7   29 1
    15    9   10 1
    16    9   24 1
    17   10   11 1
    18   10   12 1
    19   10   19 1
    20   12   13 1
    21   12   18 1
    22   12   14 1
    23   14   15 1
    24   14   16 1
    25   16   17 2
    26   16   25 1
    27   17   18 1
    28   17   26 1
    29   18   27 1
    30   18   28 1
    31   19   20 2
    32   19   30 1
@<TRIPOS>MOLECULE
ZINC12342730
   16    16     0     0     0
SMALL
USER_CHARGES
4-oxo-4-(2H-tetrazol-5-ylamino)but-2-enoic acid
@<TRIPOS>ATOM
      1 C1          1.0621    5.4794   -0.0487 C.2       1 <0>        -0.1975
      2 C2          0.1252    6.4416   -0.0667 C.2       1 <0>        -0.1031
      3 C3         -1.3044    6.0791   -0.0547 C.2       1 <0>         0.4670
      4 O1         -1.6368    4.9249    0.1251 O.co2     1 <0>        -0.5815
      5 O2         -2.2418    7.0287   -0.2432 O.co2     1 <0>        -0.7839
      6 C4          0.7870    4.1698   -0.6717 C.2       1 <0>         0.5259
      7 O3         -0.2422    3.9974   -1.2950 O.2       1 <0>        -0.4372
      8 N1          1.6770    3.1651   -0.5493 N.am      1 <0>        -0.6456
      9 C5          1.4166    1.9253   -1.1390 C.2       1 <0>         0.3427
     10 N2          2.1954    0.8642   -1.0977 N.2       1 <0>        -0.4600
     11 N3          1.5257   -0.1343   -1.8240 N.2       1 <0>        -0.2414
     12 N4          0.4194    0.3796   -2.2418 N.2       1 <0>        -0.1454
     13 N5          0.3339    1.6003   -1.8472 N.2       1 <0>        -0.3914
     14 H1          2.0343    5.6673    0.4303 H         1 <0>         0.1177
     15 H2          0.4241    7.4999   -0.0904 H         1 <0>         0.1168
     16 H3          2.6084    3.3211    0.0148 H         1 <0>         0.4167
@<TRIPOS>BOND
     1    1    2 2
     2    1    6 1
     3    1   14 1
     4    2    3 1
     5    2   15 1
     6    3    4 2
     7    3    5 1
     8    6    7 2
     9    6    8 am
    10    8    9 1
    11    8   16 1
    12    9   13 1
    13    9   10 2
    14   10   11 1
    15   11   12 1
    16   12   13 2
@<TRIPOS>MOLECULE
ZINC37583930
   25    24     0     0     0
SMALL
USER_CHARGES

@<TRIPOS>ATOM
      1 C1         -0.0187    1.5258    0.0104 C.3       1 <0>        -0.0813
      2 C2          0.0021   -0.0041    0.0020 C.3       1 <0>        -0.1777
      3 C3         -1.4117   -0.5257    0.0127 C.2       1 <0>         0.4906
      4 O1         -2.3491    0.2539    0.0259 O.co2     1 <0>        -0.6971
      5 O2         -1.6182   -1.7273    0.0082 O.co2     1 <0>        -0.7197
      6 C4          1.4167    2.0553   -0.0004 C.3       1 <0>         0.0732
      7 H1          1.9535    1.6326   -0.8497 H         1 <0>         0.0795
      8 C5          1.3970    3.5578   -0.1160 C.2       1 <0>         0.4969
      9 O3          1.7295    4.2467    0.8334 O.co2     1 <0>        -0.6988
     10 O4          1.0484    4.0844   -1.1589 O.co2     1 <0>        -0.6990
     11 N1          2.0888    1.6700    1.2430 N.am      1 <0>        -0.6750
     12 C6          3.4317    1.5612    1.2773 C.2       1 <0>         0.5131
     13 O5          4.0838    1.7823    0.2789 O.2       1 <0>        -0.5412
     14 C7          4.1231    1.1648    2.5564 C.3       1 <0>        -0.1945
     15 C8          5.6347    1.1153    2.3249 C.3       1 <0>         0.4735
     16 F1          6.0864    2.3766    1.9221 F         1 <0>        -0.1714
     17 F2          6.2765    0.7473    3.5122 F         1 <0>        -0.1926
     18 F3          5.9233    0.1766    1.3285 F         1 <0>        -0.1752
     19 H2         -0.5459    1.8868   -0.8726 H         1 <0>         0.0779
     20 H3         -0.5289    1.8773    0.9072 H         1 <0>         0.0576
     21 H4          0.5123   -0.3556   -0.8948 H         1 <0>         0.0531
     22 H5          0.5293   -0.3651    0.8851 H         1 <0>         0.0506
     23 H6          1.5673    1.4932    2.0415 H         1 <0>         0.3936
     24 H7          3.8982    1.8962    3.3327 H         1 <0>         0.1334
     25 H8          3.7712    0.1821    2.8701 H         1 <0>         0.1306
@<TRIPOS>BOND
     1    1    2 1
     2    1    6 1
     3    1   19 1
     4    1   20 1
     5    2    3 1
     6    2   21 1
     7    2   22 1
     8    3    4 2
     9    3    5 1
    10    6    7 1
    11    6    8 1
    12    6   11 1
    13    8    9 2
    14    8   10 1
    15   11   12 am
    16   11   23 1
    17   12   13 2
    18   12   14 1
    19   14   15 1
    20   14   24 1
    21   14   25 1
    22   15   16 1
    23   15   17 1
    24   15   18 1
@<TRIPOS>MOLECULE
ZINC39697833
   32    34     0     0     0
SMALL
USER_CHARGES

@<TRIPOS>ATOM
      1 C1         -0.0187    1.5258    0.0104 C.3       1 <0>         0.0885
      2 C2          0.0021   -0.0041    0.0020 C.3       1 <0>         0.0450
      3 H1          0.5973   -0.3619   -0.8381 H         1 <0>         0.0724
      4 C3         -1.4361   -0.5470   -0.1058 C.3       1 <0>         0.0480
      5 H2         -2.1545    0.2727   -0.1029 H         1 <0>         0.0763
      6 C4         -1.6072   -1.4219    1.1599 C.3       1 <0>         0.0723
      7 H3         -2.1440   -2.3417    0.9273 H         1 <0>         0.0854
      8 C5         -0.1370   -1.7226    1.5480 C.3       1 <0>         0.3499
      9 H4          0.2573   -2.5446    0.9506 H         1 <0>         0.1089
     10 O1          0.5550   -0.4922    1.2358 O.3       1 <0>        -0.2938
     11 N1         -0.0330   -2.0291    2.9768 N.pl3     1 <0>        -0.5515
     12 C6         -0.3115   -1.1177    4.0958 C.3       1 <0>         0.4248
     13 H5         -1.3502   -0.7891    4.0601 H         1 <0>         0.1128
     14 N2         -0.0669   -1.8775    5.3266 N.2       1 <0>        -0.3655
     15 C7          0.3042   -3.0707    5.0111 C.2       1 <0>         0.0152
     16 C8          0.3357   -3.2185    3.5328 C.2       1 <0>         0.4133
     17 N3          0.6897   -4.3843    3.0333 N.2       1 <0>        -0.5892
     18 C9          1.0110   -5.4142    3.8171 C.2       1 <0>         0.5657
     19 N4          1.0095   -5.3804    5.1372 N.2       1 <0>        -0.7472
     20 C10         0.6840   -4.2713    5.8129 C.2       1 <0>         0.5615
     21 O2          0.6839   -4.2472    7.0307 O.2       1 <0>        -0.5719
     22 N5          1.3675   -6.5903    3.2100 N.2       1 <0>        -0.8206
     23 S1          0.7964    0.3167    4.0193 S.3       1 <0>        -0.9915
     24 O3         -2.2706   -0.6953    2.1962 O.3       1 <0>        -0.5189
     25 O4         -1.5852   -1.3371   -1.2871 O.3       1 <0>        -0.5523
     26 O5          1.3220    2.0204    0.0003 O.3       1 <0>        -0.5544
     27 H6         -0.5459    1.8868   -0.8726 H         1 <0>         0.0394
     28 H7         -0.5289    1.8773    0.9072 H         1 <0>         0.0632
     29 H8          1.6075   -7.3607    3.7484 H         1 <0>         0.3017
     30 H9         -3.1639   -0.4066    1.9643 H         1 <0>         0.3643
     31 H10        -1.4314   -0.8499   -2.1081 H         1 <0>         0.3777
     32 H11         1.3852    2.9853    0.0049 H         1 <0>         0.3701
@<TRIPOS>BOND
     1    1    2 1
     2    1   26 1
     3    1   27 1
     4    1   28 1
     5    2    3 1
     6    2   10 1
     7    2    4 1
     8    4    5 1
     9    4    6 1
    10    4   25 1
    11    6    7 1
    12    6    8 1
    13    6   24 1
    14    8    9 1
    15    8   10 1
    16    8   11 1
    17   11   16 1
    18   11   12 1
    19   12   13 1
    20   12   14 1
    21   12   23 1
    22   14   15 2
    23   15   20 1
    24   15   16 1
    25   16   17 2
    26   17   18 1
    27   18   19 2
    28   18   22 1
    29   19   20 1
    30   20   21 2
    31   22   29 1
    32   24   30 1
    33   25   31 1
    34   26   32 1
@<TRIPOS>MOLECULE
ZINC50421588
   36    36     0     0     0
SMALL
USER_CHARGES

@<TRIPOS>ATOM
      1 C1         -0.0187    1.5258    0.0104 C.3       1 <0>        -0.1558
      2 C2          0.0021   -0.0041    0.0020 C.3       1 <0>         0.2553
      3 H1         -1.0205   -0.3814    0.0098 H         1 <0>         0.1003
      4 C3          0.7309   -0.5033    1.2229 C.2       1 <0>         0.1795
      5 N1          2.0217   -0.4829    1.4155 N.2       1 <0>        -0.2824
      6 N2          2.2958   -0.9874    2.5662 N.2       1 <0>        -0.2973
      7 C4          1.1923   -1.3525    3.1600 C.2       1 <0>         0.1420
      8 N3          0.1673   -1.0510    2.3266 N.pl3     1 <0>        -0.4717
      9 C5         -1.2601   -1.2748    2.5685 C.3       1 <0>         0.0681
     10 N4          0.6878   -0.4765   -1.2033 N.am      1 <0>        -0.7447
     11 C6          0.0062   -0.6081   -2.3585 C.2       1 <0>         0.7073
     12 O1         -1.1778   -0.3348   -2.4004 O.2       1 <0>        -0.6019
     13 N5          0.6370   -1.0428   -3.4674 N.am      1 <0>        -0.6972
     14 C7         -0.1039   -1.1859   -4.7231 C.3       1 <0>         0.0932
     15 H2         -0.8549   -0.3991   -4.7935 H         1 <0>         0.0762
     16 C8          0.8646   -1.0735   -5.9023 C.3       1 <0>        -0.0826
     17 C9          1.4591    0.3357   -5.9414 C.3       1 <0>        -0.1759
     18 C10         2.4130    0.4464   -7.1029 C.2       1 <0>         0.4908
     19 O2          2.5999   -0.5129   -7.8318 O.co2     1 <0>        -0.6983
     20 O3          2.9977    1.4953   -7.3136 O.co2     1 <0>        -0.7203
     21 C11        -0.7814   -2.5315   -4.7561 C.2       1 <0>         0.4969
     22 O4         -1.8281   -2.6723   -5.3654 O.co2     1 <0>        -0.7039
     23 O5         -0.2830   -3.4795   -4.1734 O.co2     1 <0>        -0.7007
     24 H3          1.0039    1.9031    0.0027 H         1 <0>         0.0671
     25 H4         -0.5459    1.8868   -0.8726 H         1 <0>         0.0800
     26 H5         -0.5289    1.8773    0.9072 H         1 <0>         0.0567
     27 H6          1.1109   -1.8069    4.1363 H         1 <0>         0.2173
     28 H7         -1.5400   -2.2630    2.2035 H         1 <0>         0.0870
     29 H8         -1.4617   -1.2119    3.6378 H         1 <0>         0.0921
     30 H9         -1.8408   -0.5159    2.0441 H         1 <0>         0.0952
     31 H10         1.6324   -0.6946   -1.1699 H         1 <0>         0.4013
     32 H11         1.5816   -1.2609   -3.4340 H         1 <0>         0.3902
     33 H12         1.6660   -1.8029   -5.7850 H         1 <0>         0.0600
     34 H13         0.3294   -1.2680   -6.8318 H         1 <0>         0.0721
     35 H14         0.6576    1.0651   -6.0587 H         1 <0>         0.0521
     36 H15         1.9943    0.5302   -5.0120 H         1 <0>         0.0522
@<TRIPOS>BOND
     1    1    2 1
     2    1   24 1
     3    1   25 1
     4    1   26 1
     5    2    3 1
     6    2    4 1
     7    2   10 1
     8    4    8 1
     9    4    5 2
    10    5    6 1
    11    6    7 2
    12    7    8 1
    13    7   27 1
    14    8    9 1
    15    9   28 1
    16    9   29 1
    17    9   30 1
    18   10   11 am
    19   10   31 1
    20   11   12 2
    21   11   13 am
    22   13   14 1
    23   13   32 1
    24   14   15 1
    25   14   16 1
    26   14   21 1
    27   16   17 1
    28   16   33 1
    29   16   34 1
    30   17   18 1
    31   17   35 1
    32   17   36 1
    33   18   19 2
    34   18   20 1
    35   21   22 2
    36   21   23 1
@<TRIPOS>MOLECULE
ZINC04410536
   41    42     0     0     0
SMALL
USER_CHARGES
5-[3-[(2-cyanoacetyl)aminoiminomethyl]-2,5-dimethyl-pyrrol-1-yl]benzene-1,3-dicarboxylic acid
@<TRIPOS>ATOM
      1 C1          3.5419    6.8235    2.3084 C.3       1 <0>        -0.0911
      2 C2          4.2533    6.5314    1.0124 C.2       1 <0>         0.0358
      3 C3          5.4690    6.9929    0.6656 C.2       1 <0>        -0.1792
      4 C4          5.7552    6.4574   -0.6686 C.2       1 <0>        -0.1837
      5 C5          4.6727    5.7015   -1.0181 C.2       1 <0>         0.1162
      6 N1          3.7697    5.7552   -0.0018 N.pl3     1 <0>        -0.3765
      7 C6          2.5278    5.1045    0.0057 C.ar      1 <0>         0.0500
      8 C7          1.3574    5.8481    0.0204 C.ar      1 <0>        -0.0699
      9 C8          0.1187    5.2035    0.0288 C.ar      1 <0>        -0.1279
     10 C9          0.0596    3.8110    0.0220 C.ar      1 <0>        -0.0153
     11 C10         1.2381    3.0671    0.0067 C.ar      1 <0>        -0.1270
     12 C11         2.4731    3.7188    0.0042 C.ar      1 <0>        -0.0700
     13 C12         1.1807    1.5907   -0.0007 C.2       1 <0>         0.4974
     14 O1          2.2083    0.9430   -0.0140 O.co2     1 <0>        -0.6408
     15 C13        -1.1278    5.9967    0.0455 C.2       1 <0>         0.4978
     16 O2         -1.0755    7.2102    0.0515 O.co2     1 <0>        -0.6419
     17 C14         4.5060    4.9411   -2.3084 C.3       1 <0>        -0.0970
     18 C15         6.9709    6.6848   -1.4706 C.2       1 <0>         0.1871
     19 N2          7.0856    6.1412   -2.6438 N.2       1 <0>        -0.2672
     20 N3          8.2410    6.3574   -3.4060 N.am      1 <0>        -0.5837
     21 C16         8.3601    5.7930   -4.6241 C.2       1 <0>         0.5294
     22 O3          7.4667    5.0977   -5.0605 O.2       1 <0>        -0.4923
     23 C17         9.6030    6.0255   -5.4441 C.3       1 <0>        -0.0355
     24 C18         9.4885    5.3065   -6.7234 C.1       1 <0>         0.2180
     25 N4          9.4001    4.7516   -7.7107 N.1       1 <0>        -0.4107
     26 H1          3.8060    6.0662    3.0465 H         1 <0>         0.0698
     27 H2          3.8404    7.8062    2.6733 H         1 <0>         0.0757
     28 H3          2.4646    6.8092    2.1427 H         1 <0>         0.0746
     29 H4          6.1087    7.6329    1.2551 H         1 <0>         0.1412
     30 H5          1.4040    6.9270    0.0257 H         1 <0>         0.1264
     31 H6         -0.8970    3.3097    0.0288 H         1 <0>         0.1466
     32 H7          3.3867    3.1429   -0.0028 H         1 <0>         0.1264
     33 H8          4.0306    5.5833   -3.0498 H         1 <0>         0.0728
     34 H9          5.4836    4.6264   -2.6736 H         1 <0>         0.0998
     35 H10         3.8832    4.0635   -2.1351 H         1 <0>         0.0701
     36 H11         7.7661    7.3037   -1.0822 H         1 <0>         0.1132
     37 H12         8.9553    6.9132   -3.0571 H         1 <0>         0.3794
     38 H13         9.7174    7.0923   -5.6358 H         1 <0>         0.1400
     39 H14        10.4723    5.6592   -4.8980 H         1 <0>         0.1401
     40 O4         -0.0110    0.9628    0.0073 O.co2     1 <0>        -0.7492
     41 O5         -2.3223    5.3740    0.0540 O.co2     1 <0>        -0.7490
@<TRIPOS>BOND
     1    1    2 1
     2    1   26 1
     3    1   27 1
     4    1   28 1
     5    2    6 1
     6    2    3 2
     7    3    4 1
     8    3   29 1
     9    4    5 2
    10    4   18 1
    11    5    6 1
    12    5   17 1
    13    6    7 1
    14    7   12 ar
    15    7    8 ar
    16    8    9 ar
    17    8   30 1
    18    9   10 ar
    19    9   15 1
    20   10   11 ar
    21   10   31 1
    22   11   12 ar
    23   11   13 1
    24   12   32 1
    25   13   14 2
    26   13   40 1
    27   15   16 2
    28   15   41 1
    29   17   33 1
    30   17   34 1
    31   17   35 1
    32   18   19 2
    33   18   36 1
    34   19   20 1
    35   20   21 am
    36   20   37 1
    37   21   22 2
    38   21   23 1
    39   23   24 1
    40   23   38 1
    41   23   39 1
    42   24   25 3
@<TRIPOS>MOLECULE
ZINC22205743
   42    43     0     0     0
SMALL
USER_CHARGES
2-acetamido-4-(3-acetamido-4-carboxy-benzoyl)benzoic acid
@<TRIPOS>ATOM
      1 C1          0.6961    5.6418    2.1514 C.3       1 <0>        -0.1656
      2 C2          1.0431    4.4649    1.2764 C.2       1 <0>         0.4997
      3 O1          2.1873    4.2977    0.9107 O.2       1 <0>        -0.5487
      4 N1          0.0820    3.5981    0.9003 N.am      1 <0>        -0.6604
      5 C3          0.4195    2.4504    0.1867 C.ar      1 <0>         0.1719
      6 C4          1.6150    1.7964    0.4463 C.ar      1 <0>        -0.0906
      7 C5          1.9492    0.6487   -0.2703 C.ar      1 <0>        -0.1340
      8 C6          1.0815    0.1564   -1.2503 C.ar      1 <0>        -0.1185
      9 C7         -0.1051    0.8023   -1.5114 C.ar      1 <0>        -0.0671
     10 C8         -0.4478    1.9537   -0.7976 C.ar      1 <0>        -0.1279
     11 C9         -1.7178    2.6495   -1.0829 C.2       1 <0>         0.5018
     12 O2         -2.0576    3.5968   -0.4025 O.co2     1 <0>        -0.6338
     13 O3         -2.5002    2.2341   -2.0981 O.co2     1 <0>        -0.7428
     14 C10         3.2238   -0.0495    0.0059 C.2       1 <0>         0.4436
     15 O4          4.2233    0.5907    0.2650 O.2       1 <0>        -0.4497
     16 C11         3.2813   -1.5271   -0.0333 C.ar      1 <0>        -0.1422
     17 C12         2.1052   -2.2678   -0.1880 C.ar      1 <0>        -0.1171
     18 C13         2.1538   -3.6423   -0.2309 C.ar      1 <0>        -0.0694
     19 C14         3.3785   -4.3041   -0.1084 C.ar      1 <0>        -0.1280
     20 C15         4.5598   -3.5650    0.0526 C.ar      1 <0>         0.1691
     21 C16         4.5068   -2.1793    0.0896 C.ar      1 <0>        -0.0963
     22 N2          5.7828   -4.2206    0.1746 N.am      1 <0>        -0.6602
     23 C17         6.8064   -3.6237    0.8168 C.2       1 <0>         0.4978
     24 O5          6.6329   -2.5642    1.3810 O.2       1 <0>        -0.5458
     25 C18         8.1664   -4.2726    0.8337 C.3       1 <0>        -0.1695
     26 C19         3.4290   -5.7786   -0.1489 C.2       1 <0>         0.5014
     27 O6          4.4778   -6.3563    0.0564 O.co2     1 <0>        -0.6330
     28 O7          2.3119   -6.4839   -0.4135 O.co2     1 <0>        -0.7391
     29 H1         -0.3802    5.6257    2.3777 H         1 <0>         0.0781
     30 H2          0.9464    6.5754    1.6264 H         1 <0>         0.0903
     31 H3          1.2688    5.5833    3.0887 H         1 <0>         0.0900
     32 H4         -0.9690    3.7969    1.1569 H         1 <0>         0.4491
     33 H5          2.2857    2.1759    1.2030 H         1 <0>         0.1340
     34 H6          1.3437   -0.7330   -1.8040 H         1 <0>         0.1334
     35 H7         -0.7722    0.4191   -2.2693 H         1 <0>         0.1398
     36 H8          1.1567   -1.7595   -0.2785 H         1 <0>         0.1381
     37 H9          1.2438   -4.2105   -0.3549 H         1 <0>         0.1394
     38 H10         5.4140   -1.6066    0.2137 H         1 <0>         0.1506
     39 H11         5.9132   -5.2256   -0.2532 H         1 <0>         0.4495
     40 H12         8.8664   -3.6422    1.4017 H         1 <0>         0.0878
     41 H13         8.5307   -4.3874   -0.1979 H         1 <0>         0.0859
     42 H14         8.0948   -5.2618    1.3096 H         1 <0>         0.0887
@<TRIPOS>BOND
     1    1    2 1
     2    1   29 1
     3    1   30 1
     4    1   31 1
     5    2    3 2
     6    2    4 am
     7    4    5 1
     8    4   32 1
     9    5   10 ar
    10    5    6 ar
    11    6    7 ar
    12    6   33 1
    13    7    8 ar
    14    7   14 1
    15    8    9 ar
    16    8   34 1
    17    9   10 ar
    18    9   35 1
    19   10   11 1
    20   11   12 2
    21   11   13 1
    22   14   15 2
    23   14   16 1
    24   16   21 ar
    25   16   17 ar
    26   17   18 ar
    27   17   36 1
    28   18   19 ar
    29   18   37 1
    30   19   20 ar
    31   19   26 1
    32   20   21 ar
    33   20   22 1
    34   21   38 1
    35   22   23 am
    36   22   39 1
    37   23   24 2
    38   23   25 1
    39   25   40 1
    40   25   41 1
    41   25   42 1
    42   26   27 2
    43   26   28 1
@<TRIPOS>MOLECULE
ZINC13092888
   41    43     0     0     0
SMALL
USER_CHARGES

@<TRIPOS>ATOM
      1 C1         -0.0739    1.6602   -0.1673 C.3       1 <0>        -0.1404
      2 C2         -0.0657    0.1430    0.0301 C.3       1 <0>        -0.1064
      3 H1          0.4948   -0.3256   -0.7787 H         1 <0>         0.1206
      4 C3         -1.4819   -0.3721    0.0240 C.2       1 <0>         0.5423
      5 O1         -2.0743   -0.5300    1.0706 O.2       1 <0>        -0.4985
      6 N1         -2.0902   -0.6573   -1.1443 N.am      1 <0>        -0.6687
      7 C4         -3.3646   -1.2394   -1.1468 C.ar      1 <0>         0.1724
      8 C5         -4.2644   -0.9360   -2.1597 C.ar      1 <0>        -0.1382
      9 C6         -5.5214   -1.5097   -2.1638 C.ar      1 <0>        -0.0788
     10 C7         -5.8877   -2.3887   -1.1573 C.ar      1 <0>         0.0065
     11 C8         -4.9872   -2.6950   -0.1399 C.ar      1 <0>         0.0555
     12 C9         -3.7255   -2.1238   -0.1398 C.ar      1 <0>        -0.1054
     13 O2         -5.5818   -3.5735    0.7193 O.3       1 <0>        -0.3058
     14 C10        -6.9924   -3.4856    0.4443 C.3       1 <0>         0.2135
     15 O3         -7.0470   -3.0761   -0.9350 O.3       1 <0>        -0.3120
     16 S1          0.7160   -0.2559    1.6177 S.3       1 <0>         0.0209
     17 C11         2.3853    0.2705    1.4152 C.ar      1 <0>         0.2536
     18 N2          3.2468    0.1191    2.4137 N.ar      1 <0>        -0.5767
     19 C12         4.5042    0.5178    2.2553 C.ar      1 <0>         0.4213
     20 O4          5.4058    0.3754    3.2571 O.3       1 <0>        -0.6584
     21 C13         4.8784    1.0858    1.0367 C.ar      1 <0>        -0.0378
     22 N3          3.9774    1.2105    0.0804 N.ar      1 <0>        -0.2059
     23 N4          2.7684    0.8091    0.2638 N.ar      1 <0>        -0.4068
     24 C14         6.2944    1.5518    0.8156 C.3       1 <0>        -0.0106
     25 C15         7.1252    0.4032    0.2399 C.3       1 <0>        -0.1652
     26 C16         8.5412    0.8692    0.0187 C.2       1 <0>         0.4975
     27 O5          8.8566    2.0138    0.2959 O.co2     1 <0>        -0.7013
     28 O6          9.3714    0.1016   -0.4374 O.co2     1 <0>        -0.7189
     29 H2          0.9504    2.0327   -0.1629 H         1 <0>         0.1005
     30 H3         -0.5436    1.8999   -1.1213 H         1 <0>         0.0589
     31 H4         -0.6345    2.1288    0.6415 H         1 <0>         0.0642
     32 H5         -1.6458   -0.4595   -1.9835 H         1 <0>         0.4185
     33 H6         -3.9817   -0.2506   -2.9450 H         1 <0>         0.1432
     34 H7         -6.2197   -1.2723   -2.9527 H         1 <0>         0.1383
     35 H8         -3.0242   -2.3634    0.6457 H         1 <0>         0.1514
     36 H9         -7.4692   -4.4570    0.5746 H         1 <0>         0.1295
     37 H10        -7.4616   -2.7385    1.0845 H         1 <0>         0.0827
     38 H11         6.2967    2.3879    0.1164 H         1 <0>         0.0617
     39 H12         6.7243    1.8709    1.7650 H         1 <0>         0.0768
     40 H13         7.1229   -0.4330    0.9391 H         1 <0>         0.0560
     41 H14         6.6952    0.0841   -0.7096 H         1 <0>         0.0497
@<TRIPOS>BOND
     1    1    2 1
     2    1   29 1
     3    1   30 1
     4    1   31 1
     5    2    3 1
     6    2    4 1
     7    2   16 1
     8    4    5 2
     9    4    6 am
    10    6    7 1
    11    6   32 1
    12    7   12 ar
    13    7    8 ar
    14    8    9 ar
    15    8   33 1
    16    9   10 ar
    17    9   34 1
    18   10   15 1
    19   10   11 ar
    20   11   12 ar
    21   11   13 1
    22   12   35 1
    23   13   14 1
    24   14   15 1
    25   14   36 1
    26   14   37 1
    27   16   17 1
    28   17   18 ar
    29   17   23 ar
    30   18   19 ar
    31   19   20 1
    32   19   21 ar
    33   21   22 ar
    34   21   24 1
    35   22   23 ar
    36   24   25 1
    37   24   38 1
    38   24   39 1
    39   25   26 1
    40   25   40 1
    41   25   41 1
    42   26   27 2
    43   26   28 1
@<TRIPOS>MOLECULE
ZINC44830795
   39    40     0     0     0
SMALL
USER_CHARGES

@<TRIPOS>ATOM
      1 C1         -0.3431    1.8445   -0.3155 C.3       1 <0>        -0.6356
      2 S1         -0.5043    0.0473   -0.5009 S.o2      1 <0>         2.5191
      3 O1         -0.3429   -0.5911    0.7583 O.2       1 <0>        -1.0349
      4 O2         -1.6145   -0.2613   -1.3325 O.2       1 <0>        -1.0308
      5 N1          0.8223   -0.4106   -1.3799 N.2       1 <0>        -1.0812
      6 C2          1.0132   -1.7577   -1.7085 C.ar      1 <0>         0.2774
      7 C3          0.0874   -2.7096   -1.3024 C.ar      1 <0>        -0.2348
      8 C4          0.2757   -4.0384   -1.6265 C.ar      1 <0>        -0.0871
      9 C5          1.3909   -4.4237   -2.3587 C.ar      1 <0>         0.0541
     10 C6          2.3170   -3.4728   -2.7656 C.ar      1 <0>        -0.0644
     11 C7          2.1265   -2.1422   -2.4461 C.ar      1 <0>        -0.0780
     12 Cl1         3.2811   -0.9519   -2.9598 Cl        1 <0>        -0.0941
     13 N2          1.5819   -5.7729   -2.6865 N.am      1 <0>        -0.6731
     14 C8          2.1413   -6.1070   -3.8663 C.2       1 <0>         0.5127
     15 O3          2.5558   -5.2412   -4.6078 O.2       1 <0>        -0.4899
     16 C9          2.2518   -7.5564   -4.2641 C.3       1 <0>        -0.0788
     17 H1          1.2574   -8.0002   -4.3114 H         1 <0>         0.0959
     18 C10         3.1024   -8.3081   -3.2379 C.3       1 <0>        -0.0816
     19 C11         3.4417   -9.6769   -3.7510 C.2       1 <0>        -0.1637
     20 C12         3.3460  -10.0303   -4.9926 C.2       1 <0>        -0.1426
     21 C13         2.8736   -9.1234   -6.0909 C.3       1 <0>        -0.0754
     22 C14         2.9304   -7.6643   -5.6356 C.3       1 <0>        -0.1352
     23 H2          3.9708   -7.3492   -5.5555 H         1 <0>         0.0640
     24 C15         2.2073   -6.7912   -6.6286 C.2       1 <0>         0.5177
     25 O4          2.8399   -6.1465   -7.4476 O.co2     1 <0>        -0.6990
     26 O5          0.9898   -6.7296   -6.6130 O.co2     1 <0>        -0.7042
     27 H3          0.5856    2.0740    0.2069 H         1 <0>         0.1135
     28 H4         -0.3310    2.3117   -1.3003 H         1 <0>         0.1145
     29 H5         -1.1870    2.2278    0.2581 H         1 <0>         0.0964
     30 H6         -0.7800   -2.4104   -0.7326 H         1 <0>         0.1092
     31 H7         -0.4445   -4.7785   -1.3102 H         1 <0>         0.1077
     32 H8          3.1845   -3.7728   -3.3347 H         1 <0>         0.1342
     33 H9          1.3114   -6.4662   -2.0643 H         1 <0>         0.3949
     34 H10         4.0222   -7.7526   -3.0546 H         1 <0>         0.0728
     35 H11         2.5460   -8.3996   -2.3051 H         1 <0>         0.0682
     36 H12         3.7869  -10.4130   -3.0401 H         1 <0>         0.0969
     37 H13         3.6236  -11.0406   -5.2543 H         1 <0>         0.0948
     38 H14         3.5094   -9.2547   -6.9665 H         1 <0>         0.0663
     39 H15         1.8461   -9.3768   -6.3519 H         1 <0>         0.0739
@<TRIPOS>BOND
     1    1    2 1
     2    1   27 1
     3    1   28 1
     4    1   29 1
     5    2    3 2
     6    2    4 2
     7    2    5 1
     8    5    6 1
     9    6   11 ar
    10    6    7 ar
    11    7    8 ar
    12    7   30 1
    13    8    9 ar
    14    8   31 1
    15    9   10 ar
    16    9   13 1
    17   10   11 ar
    18   10   32 1
    19   11   12 1
    20   13   14 am
    21   13   33 1
    22   14   15 2
    23   14   16 1
    24   16   17 1
    25   16   22 1
    26   16   18 1
    27   18   19 1
    28   18   34 1
    29   18   35 1
    30   19   20 2
    31   19   36 1
    32   20   21 1
    33   20   37 1
    34   21   22 1
    35   21   38 1
    36   21   39 1
    37   22   23 1
    38   22   24 1
    39   24   25 2
    40   24   26 1
@<TRIPOS>MOLECULE
ZINC16902108
   39    41     0     0     0
SMALL
USER_CHARGES

@<TRIPOS>ATOM
      1 C1         -0.7943    1.6651    0.0348 C.ar      1 <0>        -0.1737
      2 C2          0.2353    2.5820   -0.0458 C.ar      1 <0>        -0.0997
      3 C3          1.5423    2.1456   -0.2041 C.ar      1 <0>         0.0405
      4 C4          1.8165    0.7882   -0.2816 C.ar      1 <0>        -0.0944
      5 C5          0.7881   -0.1301   -0.2012 C.ar      1 <0>        -0.1629
      6 C6         -0.5207    0.3059   -0.0427 C.ar      1 <0>         0.2107
      7 N1         -1.5633   -0.6239    0.0394 N.pl3     1 <0>        -0.7248
      8 C7         -1.2742   -2.0578   -0.0424 C.3       1 <0>         0.1239
      9 H1         -0.3145   -2.2816    0.4234 H         1 <0>         0.1311
     10 C8         -2.4019   -2.8774    0.6172 C.3       1 <0>        -0.1570
     11 C9         -2.9391   -3.7200   -0.5190 C.2       1 <0>         0.5204
     12 O1         -3.8473   -4.5184   -0.4327 O.2       1 <0>        -0.4642
     13 N2         -2.2527   -3.4440   -1.6348 N.am      1 <0>        -0.5096
     14 C10        -1.2886   -2.5227   -1.4823 C.2       1 <0>         0.5009
     15 O2         -0.5486   -2.1247   -2.3561 O.2       1 <0>        -0.4479
     16 C11        -2.5176   -4.0678   -2.8628 C.ar      1 <0>         0.0482
     17 C12        -1.5845   -4.9323   -3.4145 C.ar      1 <0>        -0.0634
     18 C13        -1.8442   -5.5556   -4.6381 C.ar      1 <0>        -0.1500
     19 C14        -3.0439   -5.3074   -5.3039 C.ar      1 <0>        -0.0283
     20 C15        -3.9797   -4.4377   -4.7453 C.ar      1 <0>        -0.1502
     21 C16        -3.7142   -3.8227   -3.5188 C.ar      1 <0>        -0.0631
     22 C17        -5.2511   -4.1714   -5.4456 C.2       1 <0>         0.5293
     23 O3         -5.4845   -4.7136   -6.5166 O.co2     1 <0>        -0.6849
     24 O4         -6.0713   -3.4085   -4.9549 O.co2     1 <0>        -0.6993
     25 C18        -0.8499   -6.4747   -5.2249 C.2       1 <0>         0.5293
     26 O5          0.2022   -6.6914   -4.6404 O.co2     1 <0>        -0.6989
     27 O6         -1.0780   -7.0197   -6.2956 O.co2     1 <0>        -0.6850
     28 O7          2.5556    3.0493   -0.2839 O.3       1 <0>        -0.4989
     29 H2         -1.8115    2.0049    0.1625 H         1 <0>         0.1254
     30 H3          0.0227    3.6392    0.0140 H         1 <0>         0.1251
     31 H4          2.8345    0.4493   -0.4052 H         1 <0>         0.1273
     32 H5          1.0017   -1.1870   -0.2618 H         1 <0>         0.1281
     33 H6         -2.4774   -0.3190    0.1504 H         1 <0>         0.4074
     34 H7         -2.0028   -3.5109    1.4093 H         1 <0>         0.1301
     35 H8         -3.1781   -2.2183    1.0062 H         1 <0>         0.1240
     36 H9         -0.6555   -5.1239   -2.8981 H         1 <0>         0.1200
     37 H10        -3.2475   -5.7872   -6.2498 H         1 <0>         0.1379
     38 H11        -4.4404   -3.1523   -3.0833 H         1 <0>         0.1190
     39 H12         2.9448    3.2802    0.5707 H         1 <0>         0.3776
@<TRIPOS>BOND
     1    1    6 ar
     2    1    2 ar
     3    1   29 1
     4    2    3 ar
     5    2   30 1
     6    3    4 ar
     7    3   28 1
     8    4    5 ar
     9    4   31 1
    10    5    6 ar
    11    5   32 1
    12    6    7 1
    13    7    8 1
    14    7   33 1
    15    8    9 1
    16    8   14 1
    17    8   10 1
    18   10   11 1
    19   10   34 1
    20   10   35 1
    21   11   12 2
    22   11   13 am
    23   13   14 am
    24   13   16 1
    25   14   15 2
    26   16   21 ar
    27   16   17 ar
    28   17   18 ar
    29   17   36 1
    30   18   19 ar
    31   18   25 1
    32   19   20 ar
    33   19   37 1
    34   20   21 ar
    35   20   22 1
    36   21   38 1
    37   22   23 2
    38   22   24 1
    39   25   26 2
    40   25   27 1
    41   28   39 1
@<TRIPOS>MOLECULE
ZINC16900425
   38    40     0     0     0
SMALL
USER_CHARGES

@<TRIPOS>ATOM
      1 C1          0.3162    2.4608   -0.5745 C.ar      1 <0>        -0.1443
      2 C2          1.6145    2.9439   -0.5012 C.ar      1 <0>        -0.1108
      3 C3          2.6781    2.0750   -0.3805 C.ar      1 <0>        -0.1200
      4 C4          2.4552    0.7031   -0.3316 C.ar      1 <0>        -0.0847
      5 C5          1.1405    0.2100   -0.4057 C.ar      1 <0>        -0.1235
      6 C6          0.0731    1.1069   -0.5276 C.ar      1 <0>        -0.0759
      7 C7          0.8890   -1.2373   -0.3558 C.2       1 <0>         0.5189
      8 O1         -0.2569   -1.6618   -0.4206 O.co2     1 <0>        -0.6818
      9 O2          1.8255   -2.0177   -0.2496 O.co2     1 <0>        -0.6505
     10 S1          3.8121   -0.4104   -0.1785 S.3       1 <0>         0.0811
     11 C8          5.2654    0.6738   -0.1228 C.3       1 <0>        -0.2093
     12 H1          5.2789    1.3398   -0.9856 H         1 <0>         0.1324
     13 C9          6.5619   -0.1591   -0.0596 C.3       1 <0>        -0.1207
     14 C10         7.1824    0.2501    1.2583 C.2       1 <0>         0.5299
     15 O3          8.2274   -0.1731    1.7039 O.2       1 <0>        -0.4733
     16 N1          6.3948    1.1540    1.8542 N.am      1 <0>        -0.5192
     17 C11         5.2874    1.4691    1.1643 C.2       1 <0>         0.5347
     18 O4          4.4399    2.2621    1.5143 O.2       1 <0>        -0.4568
     19 C12         6.7025    1.7273    3.0979 C.ar      1 <0>         0.0772
     20 C13         5.9152    1.4392    4.2083 C.ar      1 <0>        -0.0865
     21 C14         6.2089    1.9974    5.4353 C.ar      1 <0>        -0.1573
     22 C15         7.2933    2.8519    5.5708 C.ar      1 <0>         0.1481
     23 C16         8.0919    3.1474    4.4560 C.ar      1 <0>        -0.1563
     24 C17         7.7905    2.5723    3.2174 C.ar      1 <0>        -0.0466
     25 C18         9.2442    4.0529    4.5905 C.2       1 <0>         0.5249
     26 O5          9.9385    4.3083    3.6161 O.co2     1 <0>        -0.6900
     27 O6          9.5078    4.5503    5.6767 O.co2     1 <0>        -0.6718
     28 O7          7.5802    3.4006    6.7778 O.3       1 <0>        -0.4730
     29 H2         -0.5092    3.1515   -0.6645 H         1 <0>         0.1133
     30 H3          1.7934    4.0083   -0.5394 H         1 <0>         0.1140
     31 H4          3.6855    2.4602   -0.3241 H         1 <0>         0.1259
     32 H5         -0.9400    0.7371   -0.5849 H         1 <0>         0.1275
     33 H6          6.3336   -1.2249   -0.0616 H         1 <0>         0.1279
     34 H7          7.2216    0.0945   -0.8894 H         1 <0>         0.1271
     35 H8          5.0692    0.7752    4.1091 H         1 <0>         0.1244
     36 H9          5.5929    1.7688    6.2924 H         1 <0>         0.1291
     37 H10         8.4033    2.7910    2.3554 H         1 <0>         0.1316
     38 H11         8.1827    2.8707    7.3175 H         1 <0>         0.3843
@<TRIPOS>BOND
     1    1    6 ar
     2    1    2 ar
     3    1   29 1
     4    2    3 ar
     5    2   30 1
     6    3    4 ar
     7    3   31 1
     8    4    5 ar
     9    4   10 1
    10    5    6 ar
    11    5    7 1
    12    6   32 1
    13    7    8 2
    14    7    9 1
    15   10   11 1
    16   11   12 1
    17   11   17 1
    18   11   13 1
    19   13   14 1
    20   13   33 1
    21   13   34 1
    22   14   15 2
    23   14   16 am
    24   16   17 am
    25   16   19 1
    26   17   18 2
    27   19   24 ar
    28   19   20 ar
    29   20   21 ar
    30   20   35 1
    31   21   22 ar
    32   21   36 1
    33   22   23 ar
    34   22   28 1
    35   23   24 ar
    36   23   25 1
    37   24   37 1
    38   25   26 2
    39   25   27 1
    40   28   38 1
@<TRIPOS>MOLECULE
ZINC04896425
   25    25     0     0     0
SMALL
USER_CHARGES
4-acetoxycyclopentane-1,3-dicarboxylic acid
@<TRIPOS>ATOM
      1 C1          3.8650    6.5038   -0.1694 C.3       1 <0>        -0.1389
      2 C2          3.3959    5.3607   -1.0323 C.2       1 <0>         0.4531
      3 O1          3.0435    5.5672   -2.1694 O.2       1 <0>        -0.5523
      4 O2          3.3696    4.1132   -0.5376 O.3       1 <0>        -0.2817
      5 C3          2.9064    3.0617   -1.4253 C.3       1 <0>         0.1002
      6 H1          3.1563    3.2990   -2.4594 H         1 <0>         0.0712
      7 C4          1.3792    2.8552   -1.2704 C.3       1 <0>        -0.1048
      8 C5          1.2804    1.9752    0.0004 C.3       1 <0>        -0.1291
      9 H2          1.3632    2.5894    0.8971 H         1 <0>         0.0702
     10 C6          2.4812    1.0132   -0.1112 C.3       1 <0>        -0.0812
     11 C7          3.5150    1.7040   -1.0177 C.3       1 <0>        -0.1358
     12 H3          3.7005    1.0969   -1.9038 H         1 <0>         0.0785
     13 C8          4.8009    1.9206   -0.2624 C.2       1 <0>         0.4754
     14 O3          5.2026    3.0425   -0.0626 O.co2     1 <0>        -0.6233
     15 C9         -0.0143    1.2041    0.0087 C.2       1 <0>         0.4720
     16 O4          0.0021   -0.0041    0.0020 O.co2     1 <0>        -0.6411
     17 H4          4.9412    6.6299   -0.2870 H         1 <0>         0.0957
     18 H5          3.3566    7.4194   -0.4715 H         1 <0>         0.0860
     19 H6          3.6363    6.2887    0.8744 H         1 <0>         0.0877
     20 H7          0.9704    2.3323   -2.1350 H         1 <0>         0.0718
     21 H8          0.8737    3.8091   -1.1200 H         1 <0>         0.0624
     22 H9          2.9095    0.8346    0.8750 H         1 <0>         0.0584
     23 H10         2.1641    0.0706   -0.5573 H         1 <0>         0.0722
     24 O5          5.5001    0.8672    0.1884 O.co2     1 <0>        -0.7827
     25 O6         -1.1857    1.8593    0.0178 O.co2     1 <0>        -0.7837
@<TRIPOS>BOND
     1    1    2 1
     2    1   17 1
     3    1   18 1
     4    1   19 1
     5    2    3 2
     6    2    4 1
     7    4    5 1
     8    5    6 1
     9    5   11 1
    10    5    7 1
    11    7    8 1
    12    7   20 1
    13    7   21 1
    14    8    9 1
    15    8   10 1
    16    8   15 1
    17   10   11 1
    18   10   22 1
    19   10   23 1
    20   11   12 1
    21   11   13 1
    22   13   14 2
    23   13   24 1
    24   15   16 2
    25   15   25 1
@<TRIPOS>MOLECULE
ZINC16937506
   41    42     0     0     0
SMALL
USER_CHARGES
(2R)-2-[(5Z)-5-[[4-[(1R)-2-hydroxy-1-methyl-2-oxo-ethoxy]phenyl]methylene]-4-oxo-2-thioxo-thiazolidin-3-yl]butanoic acid
@<TRIPOS>ATOM
      1 C1          0.5561    1.6693    1.7952 C.3       1 <0>        -0.1468
      2 C2         -0.6740    1.9650    0.9348 C.3       1 <0>        -0.1361
      3 C3         -0.4752    1.3699   -0.4607 C.3       1 <0>         0.0689
      4 H1          0.4544    1.7465   -0.8873 H         1 <0>         0.1115
      5 C4         -1.6300    1.7652   -1.3445 C.2       1 <0>         0.4738
      6 O1         -2.3284    0.9144   -1.8427 O.co2     1 <0>        -0.6112
      7 N1         -0.4118   -0.0906   -0.3642 N.am      1 <0>        -0.4910
      8 C5          0.6775   -0.7185   -0.7737 C.2       1 <0>         0.5469
      9 O2          1.6305   -0.1143   -1.2299 O.2       1 <0>        -0.4799
     10 C6          0.6791   -2.1900   -0.6500 C.2       1 <0>        -0.2422
     11 C7          1.6431   -3.0854   -0.9837 C.2       1 <0>         0.0850
     12 C8          1.4845   -4.5014   -0.6289 C.ar      1 <0>        -0.1511
     13 C9          0.4437   -4.9013    0.2184 C.ar      1 <0>        -0.0430
     14 C10         0.2962   -6.2310    0.5431 C.ar      1 <0>        -0.1585
     15 C11         1.1851   -7.1744    0.0409 C.ar      1 <0>         0.1729
     16 C12         2.2236   -6.7824   -0.7959 C.ar      1 <0>        -0.2244
     17 C13         2.3770   -5.4562   -1.1318 C.ar      1 <0>        -0.0337
     18 O3          1.0382   -8.4838    0.3686 O.3       1 <0>        -0.2777
     19 C14         2.0523   -9.3834   -0.0833 C.3       1 <0>         0.0351
     20 H2          3.0245   -8.8940   -0.0249 H         1 <0>         0.0765
     21 C15         1.7694   -9.7844   -1.5325 C.3       1 <0>        -0.1592
     22 C16         2.0563  -10.6139    0.7867 C.2       1 <0>         0.4744
     23 O4          1.2141  -10.7517    1.6421 O.co2     1 <0>        -0.6126
     24 S1         -0.9378   -2.4679    0.0601 S.3       1 <0>         0.0354
     25 C17        -1.4635   -0.7636    0.1454 C.2       1 <0>         0.2848
     26 S2         -2.9453   -0.1360    0.7298 S.2       1 <0>        -0.3214
     27 H3          0.4145    2.0933    2.7894 H         1 <0>         0.0562
     28 H4          0.6921    0.5908    1.8762 H         1 <0>         0.0388
     29 H5          1.4379    2.1130    1.3332 H         1 <0>         0.0518
     30 H6         -0.8100    3.0435    0.8538 H         1 <0>         0.0916
     31 H7         -1.5558    1.5213    1.3968 H         1 <0>         0.0966
     32 H8          2.5268   -2.7563   -1.5102 H         1 <0>         0.1556
     33 H9         -0.2446   -4.1685    0.6129 H         1 <0>         0.1356
     34 H10        -0.5090   -6.5411    1.1925 H         1 <0>         0.1394
     35 H11         2.9115   -7.5195   -1.1829 H         1 <0>         0.1387
     36 H12         3.1840   -5.1527   -1.7824 H         1 <0>         0.1319
     37 H13         0.7972  -10.2738   -1.5909 H         1 <0>         0.0615
     38 H14         1.7665   -8.8944   -2.1618 H         1 <0>         0.0535
     39 H15         2.5429  -10.4706   -1.8772 H         1 <0>         0.0781
     40 O5         -1.8828    3.0626   -1.5783 O.co2     1 <0>        -0.7515
     41 O6          2.9955  -11.5567    0.6114 O.co2     1 <0>        -0.7541
@<TRIPOS>BOND
     1    1    2 1
     2    1   27 1
     3    1   28 1
     4    1   29 1
     5    2    3 1
     6    2   30 1
     7    2   31 1
     8    3    4 1
     9    3    5 1
    10    3    7 1
    11    5    6 2
    12    5   40 1
    13    7   25 1
    14    7    8 am
    15    8    9 2
    16    8   10 1
    17   10   11 2
    18   10   24 1
    19   11   12 1
    20   11   32 1
    21   12   17 ar
    22   12   13 ar
    23   13   14 ar
    24   13   33 1
    25   14   15 ar
    26   14   34 1
    27   15   16 ar
    28   15   18 1
    29   16   17 ar
    30   16   35 1
    31   17   36 1
    32   18   19 1
    33   19   20 1
    34   19   21 1
    35   19   22 1
    36   21   37 1
    37   21   38 1
    38   21   39 1
    39   22   23 2
    40   22   41 1
    41   24   25 1
    42   25   26 2
@<TRIPOS>MOLECULE
ZINC26506901
   16    16     0     0     0
SMALL
USER_CHARGES
2-bromo-5-methyl-furan-3,4-dicarboxylic acid
@<TRIPOS>ATOM
      1 C1          1.5743    3.3018    0.0040 C.3       1 <0>        -0.0517
      2 C2          1.2233    1.8363    0.0002 C.2       1 <0>        -0.0223
      3 C3          2.1154    0.8089   -0.0138 C.2       1 <0>        -0.1521
      4 C4          1.2983   -0.4256   -0.0126 C.2       1 <0>        -0.0897
      5 C5          0.0021   -0.0041    0.0020 C.2       1 <0>        -0.0541
      6 O1         -0.0161    1.3332    0.0094 O.3       1 <0>        -0.1805
      7 Br1        -1.5203   -1.1258    0.0111 Br        1 <0>         0.0243
      8 C6          1.7826   -1.8134   -0.0240 C.2       1 <0>         0.5279
      9 O2          1.9731   -2.3820   -1.0814 O.co2     1 <0>        -0.6269
     10 O3          2.0156   -2.4555    1.1382 O.co2     1 <0>        -0.7464
     11 C7          3.5834    0.9048   -0.0280 C.2       1 <0>         0.5296
     12 O4          4.1793    0.9499   -1.0865 O.co2     1 <0>        -0.6320
     13 O5          4.2676    0.9425    1.1327 O.co2     1 <0>        -0.7524
     14 H1          2.6682    3.4168   -0.0057 H         1 <0>         0.0908
     15 H2          1.1639    3.7748    0.9083 H         1 <0>         0.0684
     16 H3          1.1470    3.7835   -0.8879 H         1 <0>         0.0670
@<TRIPOS>BOND
     1    1    2 1
     2    1   14 1
     3    1   15 1
     4    1   16 1
     5    2    6 1
     6    2    3 2
     7    3    4 1
     8    3   11 1
     9    4    5 2
    10    4    8 1
    11    5    6 1
    12    5    7 1
    13    8    9 2
    14    8   10 1
    15   11   12 2
    16   11   13 1
@<TRIPOS>MOLECULE
ZINC13182892
   25    27     0     0     0
SMALL
USER_CHARGES

@<TRIPOS>ATOM
      1 C1         -0.0164    1.3549    0.0095 C.2       1 <0>        -0.1540
      2 C2          1.1732    2.0442    0.0018 C.2       1 <0>        -0.1160
      3 C3          2.3531    1.3202   -0.0133 C.2       1 <0>        -0.1020
      4 S1          1.7510   -0.3607   -0.0166 S.3       1 <0>         0.1013
      5 C4          0.0021   -0.0041    0.0020 C.2       1 <0>        -0.1893
      6 C5          3.7361    1.8067   -0.0243 C.2       1 <0>         0.1973
      7 N1          3.9014    3.0814   -0.0144 N.2       1 <0>        -0.2096
      8 N2          5.1441    3.7140    0.0171 N.pl3     1 <0>        -0.3630
      9 C6          5.4845    4.9936   -0.2952 C.2       1 <0>         0.4463
     10 N3          6.7773    5.1319   -0.0964 N.2       1 <0>        -0.3681
     11 N4          7.2861    3.9015    0.3542 N.2       1 <0>        -0.2812
     12 C7          6.3002    3.0662    0.4115 C.2       1 <0>         0.1310
     13 S2          6.2684    1.3634    0.8815 S.3       1 <0>         0.0548
     14 C8          4.8182    0.7668   -0.0401 C.3       1 <0>        -0.0520
     15 H1          4.4474   -0.1488    0.4206 H         1 <0>         0.1379
     16 C9          5.2244    0.4778   -1.4866 C.3       1 <0>        -0.1736
     17 C10         6.2216   -0.6518   -1.5122 C.2       1 <0>         0.5065
     18 O1          6.5747   -1.1770   -0.4700 O.co2     1 <0>        -0.6796
     19 O2          6.6753   -1.0405   -2.5750 O.co2     1 <0>        -0.6991
     20 S3          4.3855    6.2466   -0.8668 S.3       1 <0>        -0.7876
     21 H2         -0.9556    1.8877    0.0258 H         1 <0>         0.1335
     22 H3          1.1868    3.1241    0.0072 H         1 <0>         0.1476
     23 H4         -0.8297   -0.6929    0.0066 H         1 <0>         0.1849
     24 H5          4.3426    0.1970   -2.0625 H         1 <0>         0.0726
     25 H6          5.6744    1.3696   -1.9228 H         1 <0>         0.0615
@<TRIPOS>BOND
     1    1    5 2
     2    1    2 1
     3    1   21 1
     4    2    3 2
     5    2   22 1
     6    3    4 1
     7    3    6 1
     8    4    5 1
     9    5   23 1
    10    6   14 1
    11    6    7 2
    12    7    8 1
    13    8   12 1
    14    8    9 1
    15    9   10 2
    16    9   20 1
    17   10   11 1
    18   11   12 2
    19   12   13 1
    20   13   14 1
    21   14   15 1
    22   14   16 1
    23   16   17 1
    24   16   24 1
    25   16   25 1
    26   17   18 2
    27   17   19 1
@<TRIPOS>MOLECULE
ZINC57574657
   24    24     0     0     0
SMALL
USER_CHARGES

@<TRIPOS>ATOM
      1 C1         -0.0168    1.3846    0.0097 C.ar      1 <0>        -0.1941
      2 C2          1.1705    2.0907    0.0021 C.ar      1 <0>        -0.0471
      3 C3          2.3782    1.4162   -0.0135 C.ar      1 <0>        -0.1295
      4 C4          2.4005    0.0313   -0.0212 C.ar      1 <0>         0.0331
      5 C5          1.2155   -0.6798   -0.0132 C.ar      1 <0>        -0.1914
      6 C6          0.0021   -0.0041    0.0020 C.ar      1 <0>         0.2875
      7 N1         -1.1978   -0.7203    0.0096 N.pl3     1 <0>        -0.5378
      8 C7         -1.1765   -2.1851    0.0016 C.3       1 <0>         0.0545
      9 C8         -1.1556   -2.6950    1.4195 C.2       1 <0>         0.4809
     10 O1         -1.1583   -1.9078    2.3505 O.co2     1 <0>        -0.6824
     11 O2         -1.1361   -3.8948    1.6357 O.co2     1 <0>        -0.7105
     12 C9         -2.4769   -0.0064    0.0257 C.3       1 <0>         0.0561
     13 C10        -2.9291    0.2460   -1.3896 C.2       1 <0>         0.4805
     14 O3         -2.2462   -0.1351   -2.3249 O.co2     1 <0>        -0.6820
     15 O4         -3.9779    0.8314   -1.5992 O.co2     1 <0>        -0.7113
     16 Cl1         3.9180   -0.8118   -0.0413 Cl        1 <0>        -0.0837
     17 Cl2         3.8682    2.3070   -0.0241 Cl        1 <0>        -0.0991
     18 H1         -0.9590    1.9121    0.0260 H         1 <0>         0.1297
     19 H2          1.1559    3.1706    0.0080 H         1 <0>         0.1267
     20 H3          1.2330   -1.7596   -0.0195 H         1 <0>         0.1341
     21 H4         -2.0660   -2.5587   -0.5058 H         1 <0>         0.0729
     22 H5         -0.2863   -2.5327   -0.5227 H         1 <0>         0.0697
     23 H6         -3.2230   -0.6093    0.5434 H         1 <0>         0.0728
     24 H7         -2.3556    0.9450    0.5435 H         1 <0>         0.0704
@<TRIPOS>BOND
     1    1    6 ar
     2    1    2 ar
     3    1   18 1
     4    2    3 ar
     5    2   19 1
     6    3    4 ar
     7    3   17 1
     8    4    5 ar
     9    4   16 1
    10    5    6 ar
    11    5   20 1
    12    6    7 1
    13    7    8 1
    14    7   12 1
    15    8    9 1
    16    8   21 1
    17    8   22 1
    18    9   10 2
    19    9   11 1
    20   12   13 1
    21   12   23 1
    22   12   24 1
    23   13   14 2
    24   13   15 1
@<TRIPOS>MOLECULE
ZINC01564967
   18    17     0     0     0
SMALL
USER_CHARGES
2,3,4-trihydroxypentanedioic acid
@<TRIPOS>ATOM
      1 C1          1.4227    1.6154   -0.0028 C.3       1 <0>         0.0873
      2 C2          2.1388    1.1220   -1.2617 C.3       1 <0>         0.0371
      3 H1          2.1536    0.0321   -1.2676 H         1 <0>         0.0906
      4 C3          3.5526    1.6436   -1.2724 C.2       1 <0>         0.4435
      5 O1          3.9035    2.4204   -2.1287 O.co2     1 <0>        -0.6487
      6 O2          1.4477    1.5954   -2.4194 O.3       1 <0>        -0.5417
      7 C4         -0.0127    1.0858    0.0080 C.3       1 <0>         0.0371
      8 H2          0.0021   -0.0041    0.0020 H         1 <0>         0.0906
      9 C5         -0.7181    1.5718    1.2479 C.2       1 <0>         0.4435
     10 O3         -1.6565    2.3269    1.1523 O.co2     1 <0>        -0.6487
     11 O4         -0.7038    1.5592   -1.1497 O.3       1 <0>        -0.5417
     12 O5          2.1138    1.1420    1.1549 O.3       1 <0>        -0.5101
     13 H3          1.4079    2.7053    0.0031 H         1 <0>         0.0777
     14 H4          1.3958    2.5591   -2.4798 H         1 <0>         0.3632
     15 H5         -0.7557    2.5229   -1.2101 H         1 <0>         0.3631
     16 H6          2.1657    0.1783    1.2153 H         1 <0>         0.3629
     17 O6          4.4221    1.2453   -0.3305 O.co2     1 <0>        -0.7528
     18 O7         -0.3039    1.1658    2.4584 O.co2     1 <0>        -0.7527
@<TRIPOS>BOND
     1    1    2 1
     2    1    7 1
     3    1   12 1
     4    1   13 1
     5    2    3 1
     6    2    4 1
     7    2    6 1
     8    4    5 2
     9    4   17 1
    10    6   14 1
    11    7    8 1
    12    7    9 1
    13    7   11 1
    14    9   10 2
    15    9   18 1
    16   11   15 1
    17   12   16 1
@<TRIPOS>MOLECULE
ZINC19879867
   30    31     0     0     0
SMALL
USER_CHARGES
2-[(5R)-4-oxo-2-[(4-sulfamoylphenyl)amino]thiazol-5-yl]acetic acid
@<TRIPOS>ATOM
      1 C1          1.0269    1.8870   -0.2495 C.ar      1 <0>        -0.1766
      2 C2         -0.1483    1.1960   -0.0283 C.ar      1 <0>        -0.0027
      3 C3         -1.1874    1.7979    0.6574 C.ar      1 <0>        -0.7258
      4 C4         -1.0499    3.0891    1.1330 C.ar      1 <0>        -0.0139
      5 C5          0.1227    3.7855    0.9152 C.ar      1 <0>        -0.1793
      6 C6          1.1663    3.1858    0.2222 C.ar      1 <0>         0.2403
      7 N1          2.3549    3.8885   -0.0005 N.2       1 <0>        -0.5998
      8 C7          2.3351    5.2505   -0.0965 C.2       1 <0>         0.4363
      9 N2          1.2767    6.0447   -0.1035 N.2       1 <0>        -0.7432
     10 C8          1.3354    7.3473   -0.1935 C.2       1 <0>         0.5246
     11 O1          0.3475    8.0556   -0.1922 O.2       1 <0>        -0.5439
     12 C9          2.7514    7.8992   -0.3070 C.3       1 <0>        -0.1226
     13 H1          2.8296    8.6327   -1.1230 H         1 <0>         0.1287
     14 S1          3.6928    6.3228   -0.2440 S.3       1 <0>        -0.1018
     15 C10         3.0955    8.8032    0.8784 C.3       1 <0>        -0.1318
     16 C11         4.5295    9.2531    0.7674 C.2       1 <0>         0.4667
     17 O2          5.2068    8.8882   -0.1642 O.co2     1 <0>        -0.6269
     18 O3          5.0543   10.0593    1.7036 O.co2     1 <0>        -0.7809
     19 S2         -2.6875    0.9152    0.9316 S.o2      1 <0>         2.6396
     20 O4         -3.7037    1.8903    1.1211 O.2       1 <0>        -1.0026
     21 O5         -2.7648   -0.0788   -0.0809 O.2       1 <0>        -0.9738
     22 N3         -2.5273    0.1127    2.3713 N.pl3     1 <0>        -1.1679
     23 H2          1.8367    1.4177   -0.7884 H         1 <0>         0.1215
     24 H3         -0.2575    0.1861   -0.3952 H         1 <0>         0.1243
     25 H4         -1.8619    3.5549    1.6715 H         1 <0>         0.1201
     26 H5          0.2281    4.7952    1.2836 H         1 <0>         0.1423
     27 H6          2.4340    9.6821    0.8734 H         1 <0>         0.0797
     28 H7          2.9576    8.2459    1.8167 H         1 <0>         0.0647
     29 H8         -3.4472   -0.4533    2.5799 H         1 <0>         0.3982
     30 H9         -2.3527    0.8392    3.1786 H         1 <0>         0.4068
@<TRIPOS>BOND
     1    1    6 ar
     2    1    2 ar
     3    1   23 1
     4    2    3 ar
     5    2   24 1
     6    3    4 ar
     7    3   19 1
     8    4    5 ar
     9    4   25 1
    10    5    6 ar
    11    5   26 1
    12    6    7 1
    13    7    8 1
    14    8   14 1
    15    8    9 2
    16    9   10 1
    17   10   11 2
    18   10   12 1
    19   12   13 1
    20   12   14 1
    21   12   15 1
    22   15   16 1
    23   15   27 1
    24   15   28 1
    25   16   17 2
    26   16   18 1
    27   19   20 2
    28   19   21 2
    29   19   22 1
    30   22   29 1
    31   22   30 1
@<TRIPOS>MOLECULE
ZINC37796842
   41    41     0     0     0
SMALL
USER_CHARGES

@<TRIPOS>ATOM
      1 C1         -0.4562    0.7472   -0.0636 C.3       1 <0>        -0.0961
      2 C2          0.7523    1.7036   -0.1224 C.3       1 <0>        -0.1729
      3 C3          1.2929    1.8768    1.2712 C.3       1 <0>        -0.0920
      4 C4          2.4440    0.9012    1.5824 C.3       1 <0>        -0.0891
      5 C5          2.1825   -0.5206    1.0496 C.3       1 <0>        -0.1187
      6 C6          0.7628   -0.9669    1.2720 C.3       1 <0>        -0.0759
      7 C7         -0.0551   -0.6503    0.0032 C.3       1 <0>        -0.1631
      8 C8          3.1247   -1.4958    1.7583 C.3       1 <0>        -0.1138
      9 C9          2.8801   -2.8920    1.2467 C.2       1 <0>         0.4848
     10 O1          2.0354   -3.0879    0.3988 O.2       1 <0>        -0.4611
     11 N1          3.6001   -3.9231    1.7314 N.am      1 <0>        -0.7468
     12 C10         3.3623   -5.2804    1.2341 C.3       1 <0>         0.1227
     13 C11         4.3046   -6.2556    1.9427 C.3       1 <0>        -0.1012
     14 C12         4.0562   -7.6731    1.4233 C.3       1 <0>        -0.1798
     15 C13         4.9843   -8.6336    2.1213 C.2       1 <0>         0.4914
     16 O2          5.7714   -8.2225    2.9568 O.co2     1 <0>        -0.7008
     17 O3          4.9480   -9.8219    1.8506 O.co2     1 <0>        -0.7122
     18 C14         2.4768   -0.5493   -0.4281 C.2       1 <0>         0.5104
     19 O4          3.0344    0.3971   -0.9571 O.co2     1 <0>        -0.7000
     20 O5          2.1573   -1.5190   -1.0946 O.co2     1 <0>        -0.6422
     21 H1         -1.0527    0.9857    0.8170 H         1 <0>         0.0294
     22 H2         -1.0682    0.8966   -0.9532 H         1 <0>         0.0362
     23 H3          1.5242    1.2794   -0.7644 H         1 <0>         0.1406
     24 H4          0.4358    2.6699   -0.5150 H         1 <0>         0.0328
     25 H5          1.6560    2.8983    1.3842 H         1 <0>         0.0386
     26 H6          0.4865    1.7102    1.9855 H         1 <0>         0.0387
     27 H7          3.3598    1.2828    1.1311 H         1 <0>         0.0664
     28 H8          2.5809    0.8522    2.6626 H         1 <0>         0.0321
     29 H9          0.7420   -2.0399    1.4628 H         1 <0>         0.0684
     30 H10         0.3401   -0.4327    2.1229 H         1 <0>         0.0269
     31 H11        -0.9484   -1.2748   -0.0060 H         1 <0>         0.0285
     32 H12         0.5478   -0.8868   -0.8736 H         1 <0>         0.1315
     33 H13         4.1582   -1.2118    1.5594 H         1 <0>         0.0759
     34 H14         2.9395   -1.4646    2.8320 H         1 <0>         0.0703
     35 H15         4.2758   -3.7664    2.4095 H         1 <0>         0.3893
     36 H16         2.3289   -5.5644    1.4329 H         1 <0>         0.0537
     37 H17         3.5476   -5.3116    0.1604 H         1 <0>         0.0568
     38 H18         5.3380   -5.9716    1.7439 H         1 <0>         0.0624
     39 H19         4.1193   -6.2244    3.0164 H         1 <0>         0.0613
     40 H20         3.0228   -7.9571    1.6222 H         1 <0>         0.0577
     41 H21         4.2414   -7.7043    0.3496 H         1 <0>         0.0590
@<TRIPOS>BOND
     1    1    7 1
     2    1    2 1
     3    1   21 1
     4    1   22 1
     5    2    3 1
     6    2   23 1
     7    2   24 1
     8    3    4 1
     9    3   25 1
    10    3   26 1
    11    4    5 1
    12    4   27 1
    13    4   28 1
    14    5    6 1
    15    5    8 1
    16    5   18 1
    17    6    7 1
    18    6   29 1
    19    6   30 1
    20    7   31 1
    21    7   32 1
    22    8    9 1
    23    8   33 1
    24    8   34 1
    25    9   10 2
    26    9   11 am
    27   11   12 1
    28   11   35 1
    29   12   13 1
    30   12   36 1
    31   12   37 1
    32   13   14 1
    33   13   38 1
    34   13   39 1
    35   14   15 1
    36   14   40 1
    37   14   41 1
    38   15   16 2
    39   15   17 1
    40   18   19 2
    41   18   20 1
@<TRIPOS>MOLECULE
ZINC40547370
   31    30     0     0     0
SMALL
USER_CHARGES

@<TRIPOS>ATOM
      1 C1         -0.0178    1.4608    0.0101 C.3       1 <0>         0.0813
      2 N1          0.0021   -0.0041    0.0020 N.am      1 <0>        -0.6415
      3 C2          0.0241   -0.7433    1.2666 C.3       1 <0>         0.1475
      4 C3         -1.4105   -1.0203    1.7205 C.3       1 <0>        -0.0523
      5 C4         -1.3884   -1.7630    2.9912 C.1       1 <0>         0.2262
      6 N2         -1.3713   -2.3363    3.9718 N.1       1 <0>        -0.4576
      7 C5          0.0001   -0.6716   -1.1688 C.2       1 <0>         0.7077
      8 O1          0.0166   -1.8873   -1.1755 O.2       1 <0>        -0.5974
      9 N3         -0.0202    0.0085   -2.3322 N.am      1 <0>        -0.6966
     10 C6         -0.0224   -0.7171   -3.6049 C.3       1 <0>         0.0893
     11 H1          0.5803   -1.6203   -3.5093 H         1 <0>         0.0761
     12 C7          0.5648    0.1741   -4.7011 C.3       1 <0>        -0.0809
     13 C8          2.0380    0.4533   -4.3969 C.3       1 <0>        -0.1756
     14 C9          2.6164    1.3311   -5.4766 C.2       1 <0>         0.4902
     15 O2          1.9152    1.6994   -6.4036 O.co2     1 <0>        -0.6976
     16 O3          3.7855    1.6731   -5.4232 O.co2     1 <0>        -0.7207
     17 C10        -1.4363   -1.0928   -3.9666 C.2       1 <0>         0.4963
     18 O4         -2.3705   -0.6317   -3.3333 O.co2     1 <0>        -0.6998
     19 O5         -1.6460   -1.8578   -4.8925 O.co2     1 <0>        -0.7030
     20 H2          1.0048    1.8381    0.0023 H         1 <0>         0.0522
     21 H3         -0.5450    1.8219   -0.8730 H         1 <0>         0.0726
     22 H4         -0.5280    1.8123    0.9069 H         1 <0>         0.0665
     23 H5          0.5496   -1.6879    1.1262 H         1 <0>         0.0898
     24 H6          0.5371   -0.1514    2.0246 H         1 <0>         0.0772
     25 H7         -1.9359   -0.0757    1.8610 H         1 <0>         0.1082
     26 H8         -1.9235   -1.6122    0.9626 H         1 <0>         0.1197
     27 H9         -0.0334    0.9784   -2.3269 H         1 <0>         0.3876
     28 H10         0.4819   -0.3311   -5.6634 H         1 <0>         0.0766
     29 H11         0.0164    1.1155   -4.7366 H         1 <0>         0.0556
     30 H12         2.1209    0.9585   -3.4346 H         1 <0>         0.0502
     31 H13         2.5864   -0.4881   -4.3614 H         1 <0>         0.0521
@<TRIPOS>BOND
     1    1    2 1
     2    1   20 1
     3    1   21 1
     4    1   22 1
     5    2    3 1
     6    2    7 am
     7    3    4 1
     8    3   23 1
     9    3   24 1
    10    4    5 1
    11    4   25 1
    12    4   26 1
    13    5    6 3
    14    7    8 2
    15    7    9 am
    16    9   10 1
    17    9   27 1
    18   10   11 1
    19   10   12 1
    20   10   17 1
    21   12   13 1
    22   12   28 1
    23   12   29 1
    24   13   14 1
    25   13   30 1
    26   13   31 1
    27   14   15 2
    28   14   16 1
    29   17   18 2
    30   17   19 1
@<TRIPOS>MOLECULE
ZINC54431972
   26    26     0     0     0
SMALL
USER_CHARGES

@<TRIPOS>ATOM
      1 C1         -0.0187    1.5258    0.0104 C.3       1 <0>        -0.0829
      2 C2          0.0021   -0.0041    0.0020 C.3       1 <0>        -0.1798
      3 C3         -1.4117   -0.5257    0.0127 C.2       1 <0>         0.4915
      4 O1         -2.3491    0.2539    0.0259 O.co2     1 <0>        -0.6965
      5 O2         -1.6182   -1.7273    0.0082 O.co2     1 <0>        -0.7184
      6 C4          1.4167    2.0553   -0.0004 C.3       1 <0>         0.0689
      7 H1          1.9535    1.6326   -0.8497 H         1 <0>         0.0857
      8 C5          1.3970    3.5578   -0.1160 C.2       1 <0>         0.4983
      9 O3          1.7295    4.2467    0.8334 O.co2     1 <0>        -0.6953
     10 O4          1.0484    4.0844   -1.1589 O.co2     1 <0>        -0.6938
     11 N1          2.0888    1.6700    1.2430 N.am      1 <0>        -0.6471
     12 C6          3.4317    1.5612    1.2773 C.2       1 <0>         0.5807
     13 O5          4.0851    1.7827    0.2770 O.2       1 <0>        -0.5358
     14 C7          4.1113    1.1716    2.5345 C.2       1 <0>         0.0454
     15 C8          5.5592    1.0208    2.7181 C.2       1 <0>         0.3683
     16 N2          5.7812    0.6685    3.9552 N.2       1 <0>        -0.3748
     17 O6          4.5303    0.5764    4.6134 O.3       1 <0>         0.0225
     18 N3          3.5243    0.9084    3.6730 N.2       1 <0>        -0.2262
     19 N4          6.5272    1.2189    1.7431 N.pl3     1 <0>        -0.8023
     20 H2         -0.5459    1.8868   -0.8726 H         1 <0>         0.0822
     21 H3         -0.5289    1.8773    0.9072 H         1 <0>         0.0603
     22 H4          0.5123   -0.3556   -0.8948 H         1 <0>         0.0540
     23 H5          0.5293   -0.3651    0.8851 H         1 <0>         0.0507
     24 H6          1.5673    1.4932    2.0415 H         1 <0>         0.4019
     25 H7          6.2659    1.4812    0.8466 H         1 <0>         0.4322
     26 H8          7.4648    1.0951    1.9584 H         1 <0>         0.4105
@<TRIPOS>BOND
     1    1    2 1
     2    1    6 1
     3    1   20 1
     4    1   21 1
     5    2    3 1
     6    2   22 1
     7    2   23 1
     8    3    4 2
     9    3    5 1
    10    6    7 1
    11    6    8 1
    12    6   11 1
    13    8    9 2
    14    8   10 1
    15   11   12 am
    16   11   24 1
    17   12   13 2
    18   12   14 1
    19   14   18 2
    20   14   15 1
    21   15   16 2
    22   15   19 1
    23   16   17 1
    24   17   18 1
    25   19   25 1
    26   19   26 1
@<TRIPOS>MOLECULE
ZINC04085056
   43    44     0     0     0
SMALL
USER_CHARGES
2-[3-(1H-indol-3-yl)propanoylamino]-3-methyl-pentanoic acid
@<TRIPOS>ATOM
      1 C1         -0.0127    1.0858    0.0080 C.3       1 <0>        -0.1474
      2 C2         -0.7288    1.5792    1.2668 C.3       1 <0>        -0.1265
      3 C3          0.0111    1.0724    2.5063 C.3       1 <0>        -0.0746
      4 H1          1.0569    1.3753    2.4543 H         1 <0>         0.0575
      5 C4         -0.0755   -0.4541    2.5634 C.3       1 <0>        -0.1452
      6 C5         -0.6301    1.6669    3.7618 C.3       1 <0>         0.1000
      7 H2         -0.6484    2.7537    3.6806 H         1 <0>         0.0846
      8 C6         -2.0389    1.1498    3.8993 C.2       1 <0>         0.4653
      9 O1         -2.3586    0.5210    4.8803 O.co2     1 <0>        -0.6325
     10 N1          0.1498    1.2782    4.9394 N.am      1 <0>        -0.7032
     11 C7          0.1165    2.0395    6.0511 C.2       1 <0>         0.5130
     12 O2         -0.5591    3.0463    6.0766 O.2       1 <0>        -0.5488
     13 C8          0.9189    1.6396    7.2625 C.3       1 <0>        -0.1296
     14 C9          0.7059    2.6661    8.3768 C.3       1 <0>        -0.0287
     15 C10         1.5082    2.2663    9.5882 C.2       1 <0>        -0.1599
     16 C11         1.0650    1.5654   10.6438 C.2       1 <0>         0.0499
     17 N2          2.0778    1.3922   11.5474 N.pl3     1 <0>        -0.5974
     18 H3          1.9986    0.9157   12.3886 H         1 <0>         0.4140
     19 C12         3.2245    1.9999   11.0875 C.ar      1 <0>         0.0942
     20 C13         2.9181    2.5742    9.8400 C.ar      1 <0>        -0.1009
     21 C14         3.9022    3.2643    9.1303 C.ar      1 <0>        -0.0665
     22 C15         5.1602    3.3788    9.6518 C.ar      1 <0>        -0.1511
     23 C16         5.4675    2.8146   10.8820 C.ar      1 <0>        -0.1016
     24 C17         4.5114    2.1290   11.5992 C.ar      1 <0>        -0.1343
     25 H4          0.0021   -0.0041    0.0020 H         1 <0>         0.0503
     26 H5          1.0099    1.4631    0.0003 H         1 <0>         0.0411
     27 H6         -0.5399    1.4469   -0.8751 H         1 <0>         0.0474
     28 H7         -0.7436    2.6691    1.2728 H         1 <0>         0.0527
     29 H8         -1.7514    1.2020    1.2746 H         1 <0>         0.1083
     30 H9         -1.1213   -0.7569    2.6154 H         1 <0>         0.0658
     31 H10         0.3814   -0.8776    1.6690 H         1 <0>         0.0508
     32 H11         0.4517   -0.8152    3.4465 H         1 <0>         0.0431
     33 H12         0.6902    0.4730    4.9190 H         1 <0>         0.3903
     34 H13         0.5934    0.6577    7.6059 H         1 <0>         0.0891
     35 H14         1.9764    1.6011    7.0013 H         1 <0>         0.0852
     36 H15         1.0313    3.6481    8.0334 H         1 <0>         0.0761
     37 H16        -0.3517    2.7047    8.6380 H         1 <0>         0.0785
     38 H17         0.0585    1.1920   10.7616 H         1 <0>         0.1715
     39 H18         3.6703    3.7062    8.1725 H         1 <0>         0.1223
     40 H19         5.9215    3.9125    9.1021 H         1 <0>         0.1202
     41 H20         6.4661    2.9137   11.2811 H         1 <0>         0.1217
     42 H21         4.7605    1.6929   12.5553 H         1 <0>         0.1163
     43 O3         -2.9386    1.3876    2.9319 O.co2     1 <0>        -0.7608
@<TRIPOS>BOND
     1    1    2 1
     2    1   25 1
     3    1   26 1
     4    1   27 1
     5    2    3 1
     6    2   28 1
     7    2   29 1
     8    3    4 1
     9    3    5 1
    10    3    6 1
    11    5   30 1
    12    5   31 1
    13    5   32 1
    14    6    7 1
    15    6    8 1
    16    6   10 1
    17    8    9 2
    18    8   43 1
    19   10   11 am
    20   10   33 1
    21   11   12 2
    22   11   13 1
    23   13   14 1
    24   13   34 1
    25   13   35 1
    26   14   15 1
    27   14   36 1
    28   14   37 1
    29   15   20 1
    30   15   16 2
    31   16   17 1
    32   16   38 1
    33   17   18 1
    34   17   19 1
    35   19   24 ar
    36   19   20 ar
    37   20   21 ar
    38   21   22 ar
    39   21   39 1
    40   22   23 ar
    41   22   40 1
    42   23   24 ar
    43   23   41 1
    44   24   42 1
@<TRIPOS>MOLECULE
ZINC36866805
   33    33     0     0     0
SMALL
USER_CHARGES

@<TRIPOS>ATOM
      1 C1         -0.0225    1.8097    0.0120 C.3       1 <0>        -0.1205
      2 S1          0.0021   -0.0041    0.0020 S.3       1 <0>        -0.2757
      3 C2          0.8734   -0.4227   -1.5329 C.3       1 <0>        -0.0726
      4 C3          0.9658   -1.9439   -1.6683 C.3       1 <0>        -0.0924
      5 C4          1.7007   -2.2970   -2.9630 C.3       1 <0>         0.1002
      6 H1          2.6705   -1.7997   -2.9775 H         1 <0>         0.0841
      7 C5          1.9001   -3.7889   -3.0366 C.2       1 <0>         0.4916
      8 O1          1.2781   -4.4476   -3.8525 O.co2     1 <0>        -0.6849
      9 O2          2.6834   -4.3373   -2.2801 O.co2     1 <0>        -0.6963
     10 N1          0.9071   -1.8531   -4.1116 N.am      1 <0>        -0.7116
     11 C6          1.5124   -1.5843   -5.2855 C.2       1 <0>         0.7088
     12 O3          2.7171   -1.7102   -5.3911 O.2       1 <0>        -0.5942
     13 N2          0.7823   -1.1760   -6.3422 N.am      1 <0>        -0.7491
     14 C7          1.4403   -0.8838   -7.6181 C.3       1 <0>         0.1979
     15 C8          0.4087   -0.4502   -8.6275 C.2       1 <0>        -0.1367
     16 C9         -0.2230   -1.3821   -9.4295 C.2       1 <0>        -0.1416
     17 C10        -1.1460   -0.9587  -10.3273 C.2       1 <0>        -0.1734
     18 S2         -1.1442    0.8056  -10.0547 S.3       1 <0>         0.0239
     19 C11         0.0825    0.8589   -8.7587 C.2       1 <0>        -0.1517
     20 H2          1.0001    2.1870    0.0043 H         1 <0>         0.0734
     21 H3         -0.5497    2.1708   -0.8711 H         1 <0>         0.0723
     22 H4         -0.5327    2.1613    0.9088 H         1 <0>         0.0974
     23 H5          0.3274   -0.0147   -2.3835 H         1 <0>         0.0776
     24 H6          1.8772    0.0015   -1.5082 H         1 <0>         0.0796
     25 H7          1.5118   -2.3519   -0.8177 H         1 <0>         0.0914
     26 H8         -0.0380   -2.3681   -1.6931 H         1 <0>         0.0714
     27 H9         -0.0540   -1.7527   -4.0274 H         1 <0>         0.3865
     28 H10        -0.1788   -1.0756   -6.2579 H         1 <0>         0.3918
     29 H11         2.1685   -0.0853   -7.4769 H         1 <0>         0.0703
     30 H12         1.9476   -1.7787   -7.9786 H         1 <0>         0.0719
     31 H13         0.0155   -2.4318   -9.3423 H         1 <0>         0.1385
     32 H14        -1.7306   -1.5383  -11.0265 H         1 <0>         0.1858
     33 H15         0.4659    1.7127   -8.2198 H         1 <0>         0.1868
@<TRIPOS>BOND
     1    1    2 1
     2    1   20 1
     3    1   21 1
     4    1   22 1
     5    2    3 1
     6    3    4 1
     7    3   23 1
     8    3   24 1
     9    4    5 1
    10    4   25 1
    11    4   26 1
    12    5    6 1
    13    5    7 1
    14    5   10 1
    15    7    8 2
    16    7    9 1
    17   10   11 am
    18   10   27 1
    19   11   12 2
    20   11   13 am
    21   13   14 1
    22   13   28 1
    23   14   15 1
    24   14   29 1
    25   14   30 1
    26   15   19 2
    27   15   16 1
    28   16   17 2
    29   16   31 1
    30   17   18 1
    31   17   32 1
    32   18   19 1
    33   19   33 1
@<TRIPOS>MOLECULE
ZINC40547880
   33    33     0     0     0
SMALL
USER_CHARGES

@<TRIPOS>ATOM
      1 C1         -0.0455    1.8324    0.0386 C.3       1 <0>        -0.1207
      2 S1         -0.0106    0.0188    0.0206 S.3       1 <0>        -0.2736
      3 C2         -1.7619   -0.4540    0.0290 C.3       1 <0>        -0.0746
      4 C3         -1.8784   -1.9795    0.0150 C.3       1 <0>        -0.0942
      5 C4         -3.3555   -2.3782    0.0220 C.3       1 <0>         0.0984
      6 H1         -3.8536   -1.9121    0.8721 H         1 <0>         0.0873
      7 C5         -3.4707   -3.8768    0.1321 C.2       1 <0>         0.4925
      8 O1         -3.5335   -4.4044    1.2295 O.co2     1 <0>        -0.6887
      9 O2         -3.5011   -4.5616   -0.8762 O.co2     1 <0>        -0.6876
     10 N1         -3.9883   -1.9298   -1.2208 N.am      1 <0>        -0.7023
     11 C6         -5.3160   -1.7009   -1.2565 C.2       1 <0>         0.7016
     12 O3         -5.9886   -1.8665   -0.2572 O.2       1 <0>        -0.5698
     13 N2         -5.8982   -1.2883   -2.3999 N.am      1 <0>        -0.6886
     14 C7         -7.2897   -1.1435   -2.4646 C.ar      1 <0>         0.2016
     15 C8         -7.9660   -1.4449   -3.6393 C.ar      1 <0>        -0.1338
     16 C9         -9.3385   -1.3022   -3.7022 C.ar      1 <0>        -0.1042
     17 C10       -10.0411   -0.8590   -2.5949 C.ar      1 <0>         0.0377
     18 C11        -9.3687   -0.5572   -1.4204 C.ar      1 <0>         0.0893
     19 C12        -7.9949   -0.7041   -1.3527 C.ar      1 <0>        -0.1331
     20 F1        -10.0558   -0.1243   -0.3407 F         1 <0>        -0.1276
     21 F2        -11.3834   -0.7198   -2.6588 F         1 <0>        -0.1341
     22 H2          0.9749    2.2155    0.0348 H         1 <0>         0.0981
     23 H3         -0.5728    2.1944   -0.8440 H         1 <0>         0.0728
     24 H4         -0.5597    2.1770    0.9358 H         1 <0>         0.0739
     25 H5         -2.2399   -0.0613    0.9264 H         1 <0>         0.0805
     26 H6         -2.2531   -0.0440   -0.8534 H         1 <0>         0.0776
     27 H7         -1.4003   -2.3721   -0.8824 H         1 <0>         0.0766
     28 H8         -1.3871   -2.3895    0.8974 H         1 <0>         0.0895
     29 H9         -3.4517   -1.7976   -2.0180 H         1 <0>         0.3917
     30 H10        -5.3534   -1.0917   -3.1780 H         1 <0>         0.4085
     31 H11        -7.4188   -1.7904   -4.5040 H         1 <0>         0.1430
     32 H12        -9.8639   -1.5364   -4.6162 H         1 <0>         0.1477
     33 H13        -7.4710   -0.4731   -0.4369 H         1 <0>         0.1648
@<TRIPOS>BOND
     1    1    2 1
     2    1   22 1
     3    1   23 1
     4    1   24 1
     5    2    3 1
     6    3    4 1
     7    3   25 1
     8    3   26 1
     9    4    5 1
    10    4   27 1
    11    4   28 1
    12    5    6 1
    13    5    7 1
    14    5   10 1
    15    7    8 2
    16    7    9 1
    17   10   11 am
    18   10   29 1
    19   11   12 2
    20   11   13 am
    21   13   14 1
    22   13   30 1
    23   14   19 ar
    24   14   15 ar
    25   15   16 ar
    26   15   31 1
    27   16   17 ar
    28   16   32 1
    29   17   18 ar
    30   17   21 1
    31   18   19 ar
    32   18   20 1
    33   19   33 1
@<TRIPOS>MOLECULE
ZINC45013569
   48    48     0     0     0
SMALL
USER_CHARGES

@<TRIPOS>ATOM
      1 C1         -0.0187    1.5258    0.0104 C.3       1 <0>        -0.1542
      2 C2          0.0021   -0.0041    0.0020 C.3       1 <0>        -0.1199
      3 C3          0.7182   -0.4975   -1.2568 C.3       1 <0>        -0.0892
      4 C4         -0.0892   -0.0968   -2.4931 C.3       1 <0>        -0.1120
      5 C5          0.6269   -0.5903   -3.7519 C.3       1 <0>        -0.1120
      6 C6          0.7579   -2.1137   -3.7000 C.3       1 <0>        -0.0957
      7 C7          1.5654   -2.5144   -2.4637 C.3       1 <0>        -0.1163
      8 C8          0.8493   -2.0210   -1.2049 C.3       1 <0>        -0.1131
      9 C9          1.4741   -2.6072   -4.9588 C.3       1 <0>         0.1458
     10 N1          1.4939   -4.0720   -4.9669 N.am      1 <0>        -0.7521
     11 C10         2.0770   -4.7324   -5.9869 C.2       1 <0>         0.7078
     12 O1          2.5864   -4.1125   -6.9004 O.2       1 <0>        -0.5951
     13 N2          2.0952   -6.0801   -5.9943 N.am      1 <0>        -0.7129
     14 C11         2.7289   -6.7980   -7.1030 C.3       1 <0>         0.1002
     15 H1          2.5700   -6.2476   -8.0303 H         1 <0>         0.0836
     16 C12         2.1127   -8.1930   -7.2258 C.3       1 <0>        -0.0922
     17 C13         0.6385   -8.0668   -7.6153 C.3       1 <0>        -0.0724
     18 S1         -0.0921   -9.7208   -7.7609 S.3       1 <0>        -0.2760
     19 C14        -1.8170   -9.3996   -8.2214 C.3       1 <0>        -0.1205
     20 C15         4.2076   -6.9233   -6.8405 C.2       1 <0>         0.4917
     21 O2          4.6605   -6.6232   -5.7490 O.co2     1 <0>        -0.6849
     22 O3          4.9510   -7.3248   -7.7195 O.co2     1 <0>        -0.6968
     23 H2          1.0039    1.9031    0.0027 H         1 <0>         0.0528
     24 H3         -0.5459    1.8868   -0.8726 H         1 <0>         0.0560
     25 H4         -0.5289    1.8773    0.9072 H         1 <0>         0.0501
     26 H5          0.5293   -0.3651    0.8851 H         1 <0>         0.0597
     27 H6         -1.0205   -0.3814    0.0098 H         1 <0>         0.0596
     28 H7          1.7103   -0.0491   -1.3098 H         1 <0>         0.0698
     29 H8         -1.0813   -0.5452   -2.4401 H         1 <0>         0.0601
     30 H9         -0.1826    0.9885   -2.5300 H         1 <0>         0.0632
     31 H10         0.0517   -0.3048   -4.6326 H         1 <0>         0.0641
     32 H11         1.6190   -0.1418   -3.8049 H         1 <0>         0.0657
     33 H12        -0.2341   -2.5622   -3.6470 H         1 <0>         0.0735
     34 H13         1.6587   -3.5998   -2.4268 H         1 <0>         0.0649
     35 H14         2.5575   -2.0660   -2.5167 H         1 <0>         0.0656
     36 H15         1.4245   -2.3064   -0.3242 H         1 <0>         0.0607
     37 H16        -0.1428   -2.4694   -1.1520 H         1 <0>         0.0600
     38 H17         0.9469   -2.2461   -5.8419 H         1 <0>         0.0598
     39 H18         2.4967   -2.2299   -4.9666 H         1 <0>         0.0626
     40 H19         1.0875   -4.5666   -4.2381 H         1 <0>         0.3898
     41 H20         1.6888   -6.5746   -5.2655 H         1 <0>         0.3858
     42 H21         2.6437   -8.7586   -7.9915 H         1 <0>         0.0910
     43 H22         2.1930   -8.7111   -6.2702 H         1 <0>         0.0713
     44 H23         0.1076   -7.5012   -6.8496 H         1 <0>         0.0776
     45 H24         0.5582   -7.5487   -8.5709 H         1 <0>         0.0794
     46 H25        -2.3454  -10.3464   -8.3337 H         1 <0>         0.0974
     47 H26        -2.2964   -8.8060   -7.4430 H         1 <0>         0.0723
     48 H27        -1.8457   -8.8535   -9.1643 H         1 <0>         0.0734
@<TRIPOS>BOND
     1    1    2 1
     2    1   23 1
     3    1   24 1
     4    1   25 1
     5    2    3 1
     6    2   26 1
     7    2   27 1
     8    3    8 1
     9    3    4 1
    10    3   28 1
    11    4    5 1
    12    4   29 1
    13    4   30 1
    14    5    6 1
    15    5   31 1
    16    5   32 1
    17    6    7 1
    18    6    9 1
    19    6   33 1
    20    7    8 1
    21    7   34 1
    22    7   35 1
    23    8   36 1
    24    8   37 1
    25    9   10 1
    26    9   38 1
    27    9   39 1
    28   10   11 am
    29   10   40 1
    30   11   12 2
    31   11   13 am
    32   13   14 1
    33   13   41 1
    34   14   15 1
    35   14   16 1
    36   14   20 1
    37   16   17 1
    38   16   42 1
    39   16   43 1
    40   17   18 1
    41   17   44 1
    42   17   45 1
    43   18   19 1
    44   19   46 1
    45   19   47 1
    46   19   48 1
    47   20   21 2
    48   20   22 1
@<TRIPOS>MOLECULE
ZINC49571029
   38    38     0     0     0
SMALL
USER_CHARGES

@<TRIPOS>ATOM
      1 C1         -0.0187    1.5258    0.0104 C.3       1 <0>        -0.1498
      2 C2          0.0021   -0.0041    0.0020 C.3       1 <0>        -0.1217
      3 C3          0.7182   -0.4975   -1.2568 C.3       1 <0>        -0.1089
      4 C4          0.7390   -2.0273   -1.2652 C.3       1 <0>         0.0932
      5 H1         -0.2789   -2.4050   -1.1679 H         1 <0>         0.0812
      6 C5          1.3339   -2.5145   -2.5613 C.2       1 <0>         0.4895
      7 O1          2.4324   -3.0433   -2.5671 O.co2     1 <0>        -0.6890
      8 O2          0.7166   -2.3799   -3.6040 O.co2     1 <0>        -0.7004
      9 N1          1.5485   -2.5109   -0.1440 N.am      1 <0>        -0.7080
     10 C6          1.3281   -3.7388    0.3660 C.2       1 <0>         0.7103
     11 O3          0.4574   -4.4452   -0.1043 O.2       1 <0>        -0.5932
     12 N2          2.0729   -4.1837    1.3975 N.am      1 <0>        -0.7489
     13 C7          1.8333   -5.5184    1.9519 C.3       1 <0>         0.2039
     14 H2          0.7678   -5.7438    1.9089 H         1 <0>         0.0970
     15 C8          2.6075   -6.5559    1.1364 C.3       1 <0>        -0.1594
     16 C9          2.2976   -5.5577    3.3851 C.ar      1 <0>        -0.0751
     17 C10         3.4658   -4.9152    3.7511 C.ar      1 <0>        -0.0973
     18 C11         3.8921   -4.9509    5.0654 C.ar      1 <0>        -0.1096
     19 C12         3.1506   -5.6292    6.0146 C.ar      1 <0>        -0.0955
     20 C13         1.9817   -6.2718    5.6490 C.ar      1 <0>        -0.0870
     21 C14         1.5526   -6.2313    4.3344 C.ar      1 <0>        -0.0800
     22 Br1         0.9671   -7.2003    6.9469 Br        1 <0>        -0.0541
     23 H3          1.0039    1.9031    0.0027 H         1 <0>         0.0509
     24 H4         -0.5459    1.8868   -0.8726 H         1 <0>         0.0532
     25 H5         -0.5289    1.8773    0.9072 H         1 <0>         0.0474
     26 H6          0.5293   -0.3651    0.8851 H         1 <0>         0.0565
     27 H7         -1.0205   -0.3814    0.0098 H         1 <0>         0.0589
     28 H8          0.1910   -0.1364   -2.1398 H         1 <0>         0.0796
     29 H9          1.7408   -0.1202   -1.2645 H         1 <0>         0.0592
     30 H10         2.2431   -1.9473    0.2312 H         1 <0>         0.3851
     31 H11         2.7675   -3.6201    1.7727 H         1 <0>         0.3893
     32 H12         2.2717   -6.5274    0.0998 H         1 <0>         0.0740
     33 H13         3.6731   -6.3304    1.1794 H         1 <0>         0.0568
     34 H14         2.4293   -7.5489    1.5489 H         1 <0>         0.0616
     35 H15         4.0456   -4.3854    3.0097 H         1 <0>         0.1303
     36 H16         4.8049   -4.4491    5.3508 H         1 <0>         0.1328
     37 H17         3.4841   -5.6577    7.0414 H         1 <0>         0.1312
     38 H18         0.6379   -6.7297    4.0492 H         1 <0>         0.1355
@<TRIPOS>BOND
     1    1    2 1
     2    1   23 1
     3    1   24 1
     4    1   25 1
     5    2    3 1
     6    2   26 1
     7    2   27 1
     8    3    4 1
     9    3   28 1
    10    3   29 1
    11    4    5 1
    12    4    6 1
    13    4    9 1
    14    6    7 2
    15    6    8 1
    16    9   10 am
    17    9   30 1
    18   10   11 2
    19   10   12 am
    20   12   13 1
    21   12   31 1
    22   13   14 1
    23   13   15 1
    24   13   16 1
    25   15   32 1
    26   15   33 1
    27   15   34 1
    28   16   21 ar
    29   16   17 ar
    30   17   18 ar
    31   17   35 1
    32   18   19 ar
    33   18   36 1
    34   19   20 ar
    35   19   37 1
    36   20   21 ar
    37   20   22 1
    38   21   38 1
@<TRIPOS>MOLECULE
ZINC04356794
   40    41     0     0     0
SMALL
USER_CHARGES
2-[5-[(4-ethylphenyl)methylene]-4-oxo-2-thioxo-thiazolidin-3-yl]pentanedioic acid
@<TRIPOS>ATOM
      1 C1          0.8461   -2.6504    1.6231 C.3       1 <0>        -0.1471
      2 C2          1.1984   -2.1873    0.2080 C.3       1 <0>        -0.0856
      3 C3          1.1927   -0.6812    0.1564 C.ar      1 <0>        -0.0735
      4 C4          2.3543    0.0212    0.4274 C.ar      1 <0>        -0.1121
      5 C5          2.3578    1.3991    0.3815 C.ar      1 <0>        -0.0909
      6 C6          1.1826    2.0875    0.0602 C.ar      1 <0>        -0.0756
      7 C7          0.0126    1.3699   -0.2124 C.ar      1 <0>        -0.0853
      8 C8          0.0261   -0.0078   -0.1621 C.ar      1 <0>        -0.1231
      9 C9          1.1772    3.5566    0.0094 C.2       1 <0>         0.0305
     10 C10         2.3431    4.2427    0.1044 C.2       1 <0>        -0.1920
     11 C11         2.5733    5.6983    0.2241 C.2       1 <0>         0.5420
     12 O1          1.6510    6.4916    0.2516 O.2       1 <0>        -0.4721
     13 N1          3.8328    6.0934    0.3042 N.am      1 <0>        -0.4847
     14 C12         4.8520    5.2112    0.2665 C.2       1 <0>         0.2778
     15 S1          6.5329    5.5253    0.3485 S.2       1 <0>        -0.2707
     16 S2          4.0248    3.6365    0.1112 S.3       1 <0>         0.0113
     17 C13         4.1278    7.5228    0.4305 C.3       1 <0>         0.0657
     18 H1          3.1949    8.0864    0.4455 H         1 <0>         0.1099
     19 C14         4.9778    7.9751   -0.7585 C.3       1 <0>        -0.1065
     20 C15         4.1639    7.8421   -2.0473 C.3       1 <0>        -0.1528
     21 C16         5.0012    8.2877   -3.2184 C.2       1 <0>         0.4654
     22 O2          6.1328    8.6721   -3.0405 O.co2     1 <0>        -0.6312
     23 C17         4.8838    7.7685    1.7108 C.2       1 <0>         0.4796
     24 O3          5.1489    6.8444    2.4426 O.co2     1 <0>        -0.6236
     25 H2          0.8502   -3.7398    1.6604 H         1 <0>         0.0557
     26 H3          1.5813   -2.2600    2.3267 H         1 <0>         0.0576
     27 H4         -0.1442   -2.2814    1.8902 H         1 <0>         0.0554
     28 H5          0.4632   -2.5777   -0.4956 H         1 <0>         0.0711
     29 H6          2.1886   -2.5562   -0.0591 H         1 <0>         0.0730
     30 H7          3.2604   -0.5117    0.6752 H         1 <0>         0.1276
     31 H8          3.2638    1.9458    0.5972 H         1 <0>         0.1378
     32 H9         -0.8984    1.8938   -0.4611 H         1 <0>         0.1307
     33 H10        -0.8761   -0.5631   -0.3723 H         1 <0>         0.1240
     34 H11         0.2447    4.0896   -0.1035 H         1 <0>         0.1578
     35 H12         5.2717    9.0156   -0.6201 H         1 <0>         0.0924
     36 H13         5.8694    7.3516   -0.8259 H         1 <0>         0.0945
     37 H14         3.8700    6.8017   -2.1856 H         1 <0>         0.0440
     38 H15         3.2724    8.4656   -1.9799 H         1 <0>         0.0595
     39 O4          4.4898    8.2574   -4.4591 O.co2     1 <0>        -0.7894
     40 O5          5.2626    9.0139    2.0381 O.co2     1 <0>        -0.7468
@<TRIPOS>BOND
     1    1    2 1
     2    1   25 1
     3    1   26 1
     4    1   27 1
     5    2    3 1
     6    2   28 1
     7    2   29 1
     8    3    8 ar
     9    3    4 ar
    10    4    5 ar
    11    4   30 1
    12    5    6 ar
    13    5   31 1
    14    6    7 ar
    15    6    9 1
    16    7    8 ar
    17    7   32 1
    18    8   33 1
    19    9   10 2
    20    9   34 1
    21   10   16 1
    22   10   11 1
    23   11   12 2
    24   11   13 am
    25   13   14 1
    26   13   17 1
    27   14   15 2
    28   14   16 1
    29   17   18 1
    30   17   19 1
    31   17   23 1
    32   19   20 1
    33   19   35 1
    34   19   36 1
    35   20   21 1
    36   20   37 1
    37   20   38 1
    38   21   22 2
    39   21   39 1
    40   23   24 2
    41   23   40 1
@<TRIPOS>MOLECULE
ZINC16937886
   35    36     0     0     0
SMALL
USER_CHARGES
(2R)-2-[4-[(Z)-[3-(carboxymethyl)-4-oxo-2-thioxo-thiazolidin-5-ylidene]methyl]phenoxy]propanoic acid
@<TRIPOS>ATOM
      1 C1          7.4824    6.9068   -0.7971 C.3       1 <0>        -0.1593
      2 C2          7.2349    6.2214    0.5483 C.3       1 <0>         0.0348
      3 H1          6.3821    6.6872    1.0419 H         1 <0>         0.0768
      4 C3          8.4579    6.3641    1.4172 C.2       1 <0>         0.4745
      5 O1          9.0890    5.3849    1.7375 O.co2     1 <0>        -0.6126
      6 O2          6.9623    4.8352    0.3336 O.3       1 <0>        -0.2773
      7 C4          5.6895    4.5020   -0.0017 C.ar      1 <0>         0.1743
      8 C5          4.7501    5.5005   -0.2317 C.ar      1 <0>        -0.2242
      9 C6          3.4581    5.1684   -0.5720 C.ar      1 <0>        -0.0315
     10 C7          3.0910    3.8218   -0.6863 C.ar      1 <0>        -0.1532
     11 C8          4.0402    2.8201   -0.4483 C.ar      1 <0>        -0.0419
     12 C9          5.3308    3.1637   -0.1143 C.ar      1 <0>        -0.1584
     13 C10         1.7144    3.4615   -1.0485 C.2       1 <0>         0.0925
     14 C11         1.4041    2.1722   -1.3381 C.2       1 <0>        -0.2462
     15 C12         0.0864    1.5545   -1.5886 C.2       1 <0>         0.5505
     16 O3         -0.9410    2.2064   -1.5601 O.2       1 <0>        -0.4645
     17 N1          0.0798    0.2585   -1.8511 N.am      1 <0>        -0.4900
     18 C13         1.2212   -0.4590   -1.8870 C.2       1 <0>         0.2901
     19 S1          1.4171   -2.1297   -2.2050 S.2       1 <0>        -0.3860
     20 S2          2.4784    0.7552   -1.5218 S.3       1 <0>         0.0577
     21 C14        -1.1963   -0.4132   -2.1090 C.3       1 <0>         0.0354
     22 C15        -1.5010   -0.3634   -3.5841 C.2       1 <0>         0.4683
     23 O4         -0.7312    0.1776   -4.3421 O.co2     1 <0>        -0.6230
     24 H2          6.5978    6.8036   -1.4256 H         1 <0>         0.0537
     25 H3          7.6903    7.9642   -0.6333 H         1 <0>         0.0784
     26 H4          8.3352    6.4410   -1.2907 H         1 <0>         0.0616
     27 H5          5.0342    6.5387   -0.1429 H         1 <0>         0.1394
     28 H6          2.7291    5.9450   -0.7507 H         1 <0>         0.1332
     29 H7          3.7614    1.7800   -0.5308 H         1 <0>         0.1338
     30 H8          6.0649    2.3920    0.0648 H         1 <0>         0.1400
     31 H9          0.9487    4.2224   -1.0844 H         1 <0>         0.1580
     32 H10        -1.1318   -1.4523   -1.7862 H         1 <0>         0.1159
     33 H11        -1.9900    0.0902   -1.5569 H         1 <0>         0.1056
     34 O5          8.8460    7.5791    1.8353 O.co2     1 <0>        -0.7537
     35 O6         -2.6277   -0.9201   -4.0558 O.co2     1 <0>        -0.7524
@<TRIPOS>BOND
     1    1    2 1
     2    1   24 1
     3    1   25 1
     4    1   26 1
     5    2    3 1
     6    2    4 1
     7    2    6 1
     8    4    5 2
     9    4   34 1
    10    6    7 1
    11    7   12 ar
    12    7    8 ar
    13    8    9 ar
    14    8   27 1
    15    9   10 ar
    16    9   28 1
    17   10   11 ar
    18   10   13 1
    19   11   12 ar
    20   11   29 1
    21   12   30 1
    22   13   14 2
    23   13   31 1
    24   14   20 1
    25   14   15 1
    26   15   16 2
    27   15   17 am
    28   17   18 1
    29   17   21 1
    30   18   19 2
    31   18   20 1
    32   21   22 1
    33   21   32 1
    34   21   33 1
    35   22   23 2
    36   22   35 1
@<TRIPOS>MOLECULE
ZINC37656310
   33    34     0     0     0
SMALL
USER_CHARGES

@<TRIPOS>ATOM
      1 C1          1.2121   -0.6821   -0.0896 C.ar      1 <0>        -0.0850
      2 C2          2.3999    0.0237   -0.0823 C.ar      1 <0>        -0.2365
      3 C3          2.3819    1.4106   -0.0291 C.ar      1 <0>         0.2923
      4 C4          1.1681    2.0865    0.0167 C.ar      1 <0>        -0.0779
      5 C5         -0.0172    1.3762    0.0092 C.ar      1 <0>        -0.0962
      6 C6          0.0041   -0.0075   -0.0439 C.ar      1 <0>        -0.0270
      7 F1         -1.1558   -0.7001   -0.0511 F         1 <0>        -0.1627
      8 Cl1         1.1413    3.8210    0.0839 Cl        1 <0>        -0.0795
      9 N1          3.5834    2.1271   -0.0211 N.2       1 <0>        -1.0860
     10 S1          5.0267    1.3223    0.0858 S.o2      1 <0>         2.7223
     11 O1          5.0176    0.6357    1.3299 O.2       1 <0>        -1.0413
     12 O2          5.2104    0.6513   -1.1533 O.2       1 <0>        -1.0546
     13 N2          6.2194    2.4668    0.1856 N.pl3     1 <0>        -0.9892
     14 C7          6.8521    2.9966   -1.0300 C.3       1 <0>         0.1316
     15 C8          8.3706    2.8386   -0.9044 C.3       1 <0>        -0.1326
     16 C9          8.8432    3.5030    0.3907 C.3       1 <0>        -0.0840
     17 C10         8.1853    2.8145    1.5887 C.3       1 <0>        -0.1648
     18 H1          8.4421    1.7552    1.5858 H         1 <0>         0.0616
     19 C11         6.6607    2.9763    1.4911 C.3       1 <0>         0.1548
     20 C12         8.6766    3.4476    2.8650 C.2       1 <0>         0.5012
     21 O3          9.4788    4.3647    2.8210 O.co2     1 <0>        -0.7038
     22 O4          8.2719    3.0427    3.9414 O.co2     1 <0>        -0.6997
     23 H2          1.2260   -1.7610   -0.1355 H         1 <0>         0.1175
     24 H3          3.3419   -0.5034   -0.1176 H         1 <0>         0.1126
     25 H4         -0.9607    1.9005    0.0452 H         1 <0>         0.1236
     26 H5          6.4975    2.4412   -1.8983 H         1 <0>         0.0788
     27 H6          6.6024    4.0517   -1.1418 H         1 <0>         0.0553
     28 H7          8.6257    1.7791   -0.8839 H         1 <0>         0.0560
     29 H8          8.8575    3.3141   -1.7559 H         1 <0>         0.0591
     30 H9          9.9266    3.4135    0.4704 H         1 <0>         0.0548
     31 H10         8.5659    4.5571    0.3803 H         1 <0>         0.0580
     32 H11         6.3958    4.0298    1.5808 H         1 <0>         0.0526
     33 H12         6.1798    2.4074    2.2869 H         1 <0>         0.0887
@<TRIPOS>BOND
     1    1    6 ar
     2    1    2 ar
     3    1   23 1
     4    2    3 ar
     5    2   24 1
     6    3    4 ar
     7    3    9 1
     8    4    5 ar
     9    4    8 1
    10    5    6 ar
    11    5   25 1
    12    6    7 1
    13    9   10 1
    14   10   11 2
    15   10   12 2
    16   10   13 1
    17   13   19 1
    18   13   14 1
    19   14   15 1
    20   14   26 1
    21   14   27 1
    22   15   16 1
    23   15   28 1
    24   15   29 1
    25   16   17 1
    26   16   30 1
    27   16   31 1
    28   17   18 1
    29   17   19 1
    30   17   20 1
    31   19   32 1
    32   19   33 1
    33   20   21 2
    34   20   22 1
@<TRIPOS>MOLECULE
ZINC44375760
   36    37     0     0     0
SMALL
USER_CHARGES

@<TRIPOS>ATOM
      1 C1         -0.0173    1.4248    0.0099 C.3       1 <0>         0.0307
      2 O1          0.0021   -0.0041    0.0020 O.3       1 <0>        -0.3079
      3 C2          0.6057   -0.6070   -1.0556 C.ar      1 <0>         0.1543
      4 C3          1.1609    0.1585   -2.0411 C.ar      1 <0>        -0.2304
      5 C4          1.7857   -0.4636   -3.1348 C.ar      1 <0>         0.0051
      6 C5          2.3682    0.2915   -4.1662 C.ar      1 <0>        -0.2301
      7 C6          2.9682   -0.3467   -5.2141 C.ar      1 <0>         0.1541
      8 C7          3.0100   -1.7431   -5.2746 C.ar      1 <0>        -0.0555
      9 C8          2.4553   -2.5025   -4.2921 C.ar      1 <0>        -0.0705
     10 C9          1.8300   -1.8795   -3.1982 C.ar      1 <0>        -0.0875
     11 C10         1.2485   -2.6355   -2.1657 C.ar      1 <0>        -0.0702
     12 C11         0.6555   -2.0031   -1.1178 C.ar      1 <0>        -0.0557
     13 C12         0.0383   -2.8184   -0.0109 C.3       1 <0>        -0.1464
     14 C13        -1.4334   -2.9989   -0.2806 C.2       1 <0>         0.5019
     15 O2         -1.9346   -2.5107   -1.2791 O.co2     1 <0>        -0.6868
     16 O3         -2.1228   -3.6332    0.4998 O.co2     1 <0>        -0.7135
     17 C14         3.6789   -2.4162   -6.4454 C.3       1 <0>        -0.1464
     18 C15         5.1593   -2.5231   -6.1848 C.2       1 <0>         0.5019
     19 O4          5.6279   -2.0927   -5.1448 O.co2     1 <0>        -0.6867
     20 O5          5.8885   -3.0401   -7.0140 O.co2     1 <0>        -0.7136
     21 O6          3.5313    0.3848   -6.2112 O.3       1 <0>        -0.3079
     22 C16         3.4566    1.8071   -6.0941 C.3       1 <0>         0.0307
     23 H1          1.0053    1.8021    0.0021 H         1 <0>         0.0474
     24 H2         -0.5445    1.7859   -0.8732 H         1 <0>         0.0500
     25 H3         -0.5275    1.7763    0.9067 H         1 <0>         0.0895
     26 H4          1.1195    1.2360   -1.9802 H         1 <0>         0.1188
     27 H5          2.3416    1.3706   -4.1309 H         1 <0>         0.1188
     28 H6          2.4949   -3.5801   -4.3523 H         1 <0>         0.1245
     29 H7          1.2758   -3.7146   -2.2026 H         1 <0>         0.1245
     30 H8          0.5217   -3.7943    0.0345 H         1 <0>         0.0655
     31 H9          0.1728   -2.3017    0.9394 H         1 <0>         0.0694
     32 H10         3.2604   -3.4138   -6.5786 H         1 <0>         0.0655
     33 H11         3.5103   -1.8280   -7.3475 H         1 <0>         0.0694
     34 H12         2.4113    2.1143   -6.0598 H         1 <0>         0.0474
     35 H13         3.9584    2.1232   -5.1796 H         1 <0>         0.0500
     36 H14         3.9430    2.2685   -6.9535 H         1 <0>         0.0895
@<TRIPOS>BOND
     1    1    2 1
     2    1   23 1
     3    1   24 1
     4    1   25 1
     5    2    3 1
     6    3   12 ar
     7    3    4 ar
     8    4    5 ar
     9    4   26 1
    10    5   10 ar
    11    5    6 ar
    12    6    7 ar
    13    6   27 1
    14    7    8 ar
    15    7   21 1
    16    8    9 ar
    17    8   17 1
    18    9   10 ar
    19    9   28 1
    20   10   11 ar
    21   11   12 ar
    22   11   29 1
    23   12   13 1
    24   13   14 1
    25   13   30 1
    26   13   31 1
    27   14   15 2
    28   14   16 1
    29   17   18 1
    30   17   32 1
    31   17   33 1
    32   18   19 2
    33   18   20 1
    34   21   22 1
    35   22   34 1
    36   22   35 1
    37   22   36 1
@<TRIPOS>MOLECULE
ZINC62268411
   24    25     0     0     0
SMALL
USER_CHARGES

@<TRIPOS>ATOM
      1 C1          0.3633    1.8813   -0.8168 C.ar      1 <0>        -0.0281
      2 C2          1.6423    2.4368   -0.8292 C.ar      1 <0>        -0.1578
      3 C3          2.7585    1.6206   -0.6275 C.ar      1 <0>        -0.0063
      4 C4          2.5955    0.2597   -0.4154 C.ar      1 <0>         0.0685
      5 C5          1.3251   -0.2968   -0.4028 C.ar      1 <0>        -0.0587
      6 C6          0.2037    0.5127   -0.6028 C.ar      1 <0>        -0.1680
      7 C7         -1.1476   -0.0803   -0.5882 C.2       1 <0>         0.5358
      8 O1         -2.1283    0.6288   -0.7637 O.co2     1 <0>        -0.6950
      9 O2         -1.2866   -1.2806   -0.4005 O.co2     1 <0>        -0.7036
     10 N1          3.7173   -0.5553   -0.2140 N.pl3     1 <0>        -0.2017
     11 C8          4.7930   -0.2663    0.5913 C.2       1 <0>        -0.0462
     12 C9          5.6403   -1.3531    0.4746 C.2       1 <0>        -0.0540
     13 N2          5.0443   -2.2001   -0.3639 N.2       1 <0>        -0.3064
     14 N3          3.9203   -1.7095   -0.7458 N.2       1 <0>        -0.1089
     15 C10         4.9988    0.9391    1.4022 C.2       1 <0>         0.5484
     16 O3          4.0544    1.6758    1.6540 O.co2     1 <0>        -0.6423
     17 O4          6.1148    1.2078    1.8269 O.co2     1 <0>        -0.6863
     18 C11         1.8169    3.8845   -1.0557 C.2       1 <0>         0.5347
     19 O5          0.8395    4.5980   -1.2326 O.co2     1 <0>        -0.7010
     20 O6          2.9388    4.3708   -1.0664 O.co2     1 <0>        -0.6913
     21 H1         -0.5016    2.5102   -0.9680 H         1 <0>         0.1336
     22 H2          3.7494    2.0501   -0.6370 H         1 <0>         0.1287
     23 H3          1.2024   -1.3570   -0.2377 H         1 <0>         0.1238
     24 H4          6.5934   -1.4881    0.9643 H         1 <0>         0.1823
@<TRIPOS>BOND
     1    1    6 ar
     2    1    2 ar
     3    1   21 1
     4    2    3 ar
     5    2   18 1
     6    3    4 ar
     7    3   22 1
     8    4    5 ar
     9    4   10 1
    10    5    6 ar
    11    5   23 1
    12    6    7 1
    13    7    8 2
    14    7    9 1
    15   10   14 1
    16   10   11 1
    17   11   12 2
    18   11   15 1
    19   12   13 1
    20   12   24 1
    21   13   14 2
    22   15   16 2
    23   15   17 1
    24   18   19 2
    25   18   20 1
@<TRIPOS>MOLECULE
ZINC40475638
   26    29     0     0     0
SMALL
USER_CHARGES

@<TRIPOS>ATOM
      1 C1         -0.0149    1.3007    0.2285 C.2       1 <0>        -0.2255
      2 C2          1.3334    1.6992    0.3770 C.2       1 <0>        -0.2390
      3 C3          2.0923    0.6599   -0.0144 C.2       1 <0>         0.0544
      4 O1          1.2797   -0.3413   -0.3899 O.3       1 <0>        -0.1251
      5 C4          0.0007    0.0417   -0.2447 C.2       1 <0>        -0.0346
      6 C5          3.5989    0.6249   -0.0294 C.3       1 <0>         0.1164
      7 H1          3.9619    1.6489   -0.1179 H         1 <0>         0.0948
      8 C6          4.0347   -0.1286   -1.2301 C.2       1 <0>        -0.2677
      9 C7          4.9667   -1.1156   -1.3256 C.2       1 <0>         0.1111
     10 N1          5.1725   -1.5722   -2.5640 N.2       1 <0>        -0.5558
     11 C8          4.4954   -1.1170   -3.5950 C.2       1 <0>         0.2809
     12 S1          4.6220   -1.5966   -5.2858 S.3       1 <0>        -0.7658
     13 S2          3.4776    0.0351   -2.9077 S.3       1 <0>         0.0428
     14 S3          5.7972   -1.7320    0.1147 S.3       1 <0>        -0.0438
     15 C9          5.4981   -0.4485    1.3715 C.3       1 <0>        -0.1565
     16 H2          6.2651    0.3258    1.3892 H         1 <0>         0.1163
     17 C10         4.0637    0.0778    1.2656 C.3       1 <0>        -0.1344
     18 H3          4.0440    0.9237    1.9528 H         1 <0>         0.0845
     19 C11         3.2491   -0.9632    1.9641 C.2       1 <0>         0.4922
     20 O2          1.9414   -1.2074    1.7899 O.3       1 <0>        -0.6052
     21 N2          4.0633   -1.5931    2.7823 N.2       1 <0>        -0.6903
     22 C12         5.3478   -1.2099    2.7025 C.2       1 <0>         0.5353
     23 O3          6.2228   -1.4284    3.5153 O.2       1 <0>        -0.5354
     24 H4         -0.8896    1.8921    0.4558 H         1 <0>         0.1323
     25 H5          1.6864    2.6550    0.7352 H         1 <0>         0.1327
     26 H6         -0.8680   -0.5594   -0.4695 H         1 <0>         0.1855
@<TRIPOS>BOND
     1    1    5 2
     2    1    2 1
     3    1   24 1
     4    2    3 2
     5    2   25 1
     6    3    4 1
     7    3    6 1
     8    4    5 1
     9    5   26 1
    10    6    7 1
    11    6   17 1
    12    6    8 1
    13    8   13 1
    14    8    9 2
    15    9   10 1
    16    9   14 1
    17   10   11 2
    18   11   12 1
    19   11   13 1
    20   14   15 1
    21   15   16 1
    22   15   22 1
    23   15   17 1
    24   17   18 1
    25   17   19 1
    26   19   20 1
    27   19   21 2
    28   21   22 1
    29   22   23 2
@<TRIPOS>MOLECULE
ZINC16955010
   43    45     0     0     0
SMALL
USER_CHARGES
(E)-4-[[(9R)-2-[[(Z)-4-hydroxy-4-oxo-but-2-enoyl]amino]-9H-fluoren-9-yl]amino]-4-oxo-but-2-enoic acid
@<TRIPOS>ATOM
      1 C1          5.6308    0.6339    5.4781 C.ar      1 <0>        -0.1163
      2 C2          6.3800   -0.4648    5.0965 C.ar      1 <0>        -0.1240
      3 C3          5.8243   -1.4339    4.2803 C.ar      1 <0>        -0.0799
      4 C4          4.5217   -1.3068    3.8460 C.ar      1 <0>        -0.1016
      5 C5          3.7597   -0.2048    4.2245 C.ar      1 <0>        -0.0383
      6 C6          4.3274    0.7696    5.0483 C.ar      1 <0>        -0.1055
      7 C7          2.4062   -0.3105    3.6262 C.ar      1 <0>        -0.0743
      8 C8          1.2965    0.5344    3.7095 C.ar      1 <0>        -0.0756
      9 C9          0.1312    0.2101    3.0505 C.ar      1 <0>        -0.1091
     10 C10         0.0541   -0.9583    2.3006 C.ar      1 <0>         0.1689
     11 C11         1.1562   -1.8019    2.2153 C.ar      1 <0>        -0.1185
     12 C12         2.3224   -1.4794    2.8733 C.ar      1 <0>        -0.0897
     13 C13         3.6568   -2.1781    2.9687 C.3       1 <0>         0.2325
     14 H1          4.1022   -2.2733    1.9785 H         1 <0>         0.1127
     15 N1          3.4914   -3.5004    3.5774 N.am      1 <0>        -0.7140
     16 C14         4.3842   -4.4768    3.3207 C.2       1 <0>         0.5534
     17 O1          5.3265   -4.2604    2.5843 O.2       1 <0>        -0.5491
     18 C15         4.2175   -5.8098    3.9344 C.2       1 <0>        -0.2085
     19 C16         5.1069   -6.7824    3.6787 C.2       1 <0>        -0.0730
     20 C17         4.9404   -8.1140    4.2917 C.2       1 <0>         0.4733
     21 O2          3.9988   -8.3302    5.0276 O.co2     1 <0>        -0.6246
     22 N2         -1.1286   -1.2839    1.6335 N.am      1 <0>        -0.6763
     23 C18        -2.3197   -0.9849    2.1888 C.2       1 <0>         0.5557
     24 O3         -2.3649   -0.3625    3.2320 O.2       1 <0>        -0.4868
     25 C19        -3.5693   -1.4131    1.5302 C.2       1 <0>        -0.2198
     26 C20        -4.5828   -0.5441    1.3831 C.2       1 <0>        -0.0826
     27 C21        -4.5195    0.7792    2.0310 C.2       1 <0>         0.4781
     28 O4         -3.5079    1.4468    1.9510 O.co2     1 <0>        -0.6144
     29 H2          6.0685    1.3885    6.1148 H         1 <0>         0.1222
     30 H3          7.4001   -0.5662    5.4363 H         1 <0>         0.1233
     31 H4          6.4107   -2.2910    3.9839 H         1 <0>         0.1276
     32 H5          3.7463    1.6290    5.3482 H         1 <0>         0.1220
     33 H6          1.3525    1.4428    4.2910 H         1 <0>         0.1252
     34 H7         -0.7235    0.8673    3.1129 H         1 <0>         0.1548
     35 H8          1.0979   -2.7096    1.6329 H         1 <0>         0.1284
     36 H9          2.7393   -3.6731    4.1652 H         1 <0>         0.4063
     37 H10         3.3802   -6.0021    4.5888 H         1 <0>         0.1331
     38 H11         5.9442   -6.5901    3.0243 H         1 <0>         0.1187
     39 H12        -1.0930   -1.7253    0.7705 H         1 <0>         0.4075
     40 H13        -3.6687   -2.4252    1.1667 H         1 <0>         0.1289
     41 H14        -5.4441   -0.8144    0.7902 H         1 <0>         0.1222
     42 O5          5.8331   -9.0903    4.0350 O.co2     1 <0>        -0.7538
     43 O6         -5.5839    1.2478    2.7118 O.co2     1 <0>        -0.7593
@<TRIPOS>BOND
     1    1    6 ar
     2    1    2 ar
     3    1   29 1
     4    2    3 ar
     5    2   30 1
     6    3    4 ar
     7    3   31 1
     8    4   13 1
     9    4    5 ar
    10    5    6 ar
    11    5    7 1
    12    6   32 1
    13    7   12 ar
    14    7    8 ar
    15    8    9 ar
    16    8   33 1
    17    9   10 ar
    18    9   34 1
    19   10   11 ar
    20   10   22 1
    21   11   12 ar
    22   11   35 1
    23   12   13 1
    24   13   14 1
    25   13   15 1
    26   15   16 am
    27   15   36 1
    28   16   17 2
    29   16   18 1
    30   18   19 2
    31   18   37 1
    32   19   20 1
    33   19   38 1
    34   20   21 2
    35   20   42 1
    36   22   23 am
    37   22   39 1
    38   23   24 2
    39   23   25 1
    40   25   26 2
    41   25   40 1
    42   26   27 1
    43   26   41 1
    44   27   28 2
    45   27   43 1
@<TRIPOS>MOLECULE
ZINC36621567
   33    34     0     0     0
SMALL
USER_CHARGES

@<TRIPOS>ATOM
      1 C1         -0.0970    1.3249   -0.0838 C.2       1 <0>        -0.3769
      2 C2          0.0021   -0.0041    0.0020 C.2       1 <0>         0.3408
      3 C3         -1.2185   -0.8303    0.1244 C.2       1 <0>        -0.4249
      4 C4         -1.3789   -1.6283    1.2488 C.2       1 <0>         0.5091
      5 O1         -0.3490   -1.5372    2.1199 O.3       1 <0>        -0.7071
      6 N1         -2.3111   -2.4438    1.6396 N.2       1 <0>        -0.6811
      7 C5         -3.4416   -2.7165    0.9622 C.2       1 <0>         0.5848
      8 O2         -4.2916   -3.4914    1.3690 O.2       1 <0>        -0.5384
      9 S1         -3.5828   -1.8395   -0.5869 S.3       1 <0>        -0.4493
     10 C6         -2.1799   -0.7772   -0.8984 C.2       1 <0>         0.4025
     11 O3         -2.0561   -0.0077   -2.0005 O.3       1 <0>        -0.6218
     12 N2          1.2565   -0.6129   -0.0237 N.pl3     1 <0>        -0.5303
     13 N3          2.4165    0.1728   -0.0293 N.am      1 <0>        -0.4820
     14 C7          3.6288   -0.4156   -0.0542 C.2       1 <0>         0.5768
     15 O4          3.7158   -1.6280   -0.0717 O.2       1 <0>        -0.5406
     16 C8          4.8518    0.4128   -0.0601 C.2       1 <0>         0.0143
     17 C9          6.1864   -0.0564   -0.0908 C.2       1 <0>        -0.1010
     18 C10         6.9605    1.0541   -0.0847 C.2       1 <0>        -0.1044
     19 N4          6.1314    2.1194   -0.0523 N.pl3     1 <0>        -0.2558
     20 N5          4.9073    1.7296   -0.0436 N.2       1 <0>        -0.2235
     21 C11         6.5653    3.5186   -0.0347 C.3       1 <0>         0.0770
     22 C12         8.4668    1.0940   -0.1091 C.3       1 <0>         0.5524
     23 F1          8.9653   -0.2050   -0.2550 F         1 <0>        -0.1582
     24 F2          8.8951    1.8814   -1.1832 F         1 <0>        -0.1734
     25 F3          8.9381    1.6426    1.0885 F         1 <0>        -0.1724
     26 H1          0.7951    1.9335   -0.0913 H         1 <0>         0.0611
     27 H2         -1.0691    1.7907   -0.1503 H         1 <0>         0.0969
     28 H3          1.3259   -1.5803   -0.0377 H         1 <0>         0.4260
     29 H4          2.3471    1.1402   -0.0153 H         1 <0>         0.4219
     30 H5          6.5177   -1.0840   -0.1138 H         1 <0>         0.1794
     31 H6          6.6560    3.8837   -1.0577 H         1 <0>         0.0943
     32 H7          5.8314    4.1199    0.5019 H         1 <0>         0.1095
     33 H8          7.5312    3.5932    0.4647 H         1 <0>         0.0943
@<TRIPOS>BOND
     1    1    2 2
     2    1   26 1
     3    1   27 1
     4    2    3 1
     5    2   12 1
     6    3   10 2
     7    3    4 1
     8    4    5 1
     9    4    6 2
    10    6    7 1
    11    7    8 2
    12    7    9 1
    13    9   10 1
    14   10   11 1
    15   12   13 1
    16   12   28 1
    17   13   14 am
    18   13   29 1
    19   14   15 2
    20   14   16 1
    21   16   20 2
    22   16   17 1
    23   17   18 2
    24   17   30 1
    25   18   19 1
    26   18   22 1
    27   19   20 1
    28   19   21 1
    29   21   31 1
    30   21   32 1
    31   21   33 1
    32   22   23 1
    33   22   24 1
    34   22   25 1
@<TRIPOS>MOLECULE
ZINC13092810
   39    40     0     0     0
SMALL
USER_CHARGES

@<TRIPOS>ATOM
      1 C1         -0.0169    1.3923    0.0097 C.ar      1 <0>        -0.0251
      2 C2          1.1688    2.0952    0.0022 C.ar      1 <0>        -0.1610
      3 C3          2.3788    1.4183   -0.0135 C.ar      1 <0>         0.1258
      4 C4          2.4034    0.0320   -0.0212 C.ar      1 <0>        -0.1582
      5 C5          1.2236   -0.6808   -0.0133 C.ar      1 <0>        -0.0548
      6 C6          0.0021   -0.0041    0.0020 C.ar      1 <0>        -0.1357
      7 C7         -1.2655   -0.7626    0.0105 C.2       1 <0>         0.5598
      8 O1         -2.3276   -0.1714    0.0243 O.2       1 <0>        -0.5318
      9 N1         -1.2445   -2.1102    0.0031 N.am      1 <0>        -0.5133
     10 N2         -2.4466   -2.8296    0.0112 N.am      1 <0>        -0.5216
     11 C8         -2.4256   -4.1772    0.0037 C.2       1 <0>         0.5420
     12 O2         -1.3659   -4.7671   -0.0100 O.2       1 <0>        -0.5208
     13 C9         -3.7187   -4.9511    0.0124 C.3       1 <0>        -0.1377
     14 S1         -3.3594   -6.7291   -0.0007 S.3       1 <0>         0.0345
     15 C10        -4.9507   -7.4856    0.0111 C.ar      1 <0>         0.2478
     16 N3         -5.0479   -8.8095    0.0049 N.ar      1 <0>        -0.5763
     17 C11        -6.2504   -9.3745    0.0138 C.ar      1 <0>         0.4213
     18 O3         -6.3802  -10.7234    0.0083 O.3       1 <0>        -0.6583
     19 C12        -7.3771   -8.5512    0.0294 C.ar      1 <0>        -0.0375
     20 N4         -7.2178   -7.2411    0.0349 N.ar      1 <0>        -0.2054
     21 N5         -6.0387   -6.7251    0.0314 N.ar      1 <0>        -0.4093
     22 C13        -8.7596   -9.1511    0.0395 C.3       1 <0>        -0.0108
     23 C14        -9.2134   -9.3623    1.4853 C.3       1 <0>        -0.1654
     24 C15       -10.5958   -9.9622    1.4953 C.2       1 <0>         0.4977
     25 O4        -11.1653  -10.1989    0.4435 O.co2     1 <0>        -0.7015
     26 O5        -11.1448  -10.2109    2.5551 O.co2     1 <0>        -0.7189
     27 F1          3.5381    2.1120   -0.0217 F         1 <0>        -0.1342
     28 H1         -0.9588    1.9205    0.0260 H         1 <0>         0.1505
     29 H2          1.1553    3.1751    0.0081 H         1 <0>         0.1449
     30 H3          3.3486   -0.4904   -0.0337 H         1 <0>         0.1454
     31 H4          1.2438   -1.7606   -0.0196 H         1 <0>         0.1406
     32 H5         -0.3970   -2.5820   -0.0079 H         1 <0>         0.4311
     33 H6         -3.2941   -2.3579    0.0221 H         1 <0>         0.4369
     34 H7         -4.2854   -4.7015    0.9094 H         1 <0>         0.1273
     35 H8         -4.3031   -4.6919   -0.8704 H         1 <0>         0.1269
     36 H9         -9.4521   -8.4764   -0.4639 H         1 <0>         0.0618
     37 H10        -8.7436  -10.1093   -0.4800 H         1 <0>         0.0771
     38 H11        -8.5209  -10.0370    1.9886 H         1 <0>         0.0562
     39 H12        -9.2293   -8.4042    2.0047 H         1 <0>         0.0500
@<TRIPOS>BOND
     1    1    6 ar
     2    1    2 ar
     3    1   28 1
     4    2    3 ar
     5    2   29 1
     6    3    4 ar
     7    3   27 1
     8    4    5 ar
     9    4   30 1
    10    5    6 ar
    11    5   31 1
    12    6    7 1
    13    7    8 2
    14    7    9 am
    15    9   10 1
    16    9   32 1
    17   10   11 am
    18   10   33 1
    19   11   12 2
    20   11   13 1
    21   13   14 1
    22   13   34 1
    23   13   35 1
    24   14   15 1
    25   15   16 ar
    26   15   21 ar
    27   16   17 ar
    28   17   18 1
    29   17   19 ar
    30   19   20 ar
    31   19   22 1
    32   20   21 ar
    33   22   23 1
    34   22   36 1
    35   22   37 1
    36   23   24 1
    37   23   38 1
    38   23   39 1
    39   24   25 2
    40   24   26 1
@<TRIPOS>MOLECULE
ZINC44935321
   35    35     0     0     0
SMALL
USER_CHARGES

@<TRIPOS>ATOM
      1 C1         -0.0187    1.5258    0.0104 C.3       1 <0>        -0.1443
      2 C2          0.0021   -0.0041    0.0020 C.3       1 <0>         0.2762
      3 H1         -1.0205   -0.3814    0.0098 H         1 <0>         0.0901
      4 C3          0.7074   -0.4901   -1.2379 C.2       1 <0>         0.0544
      5 N1          0.1410   -1.0148   -2.3147 N.2       1 <0>        -0.3792
      6 N2          1.0812   -1.3010   -3.1494 N.2       1 <0>        -0.2017
      7 N3          2.2144   -0.9739   -2.6329 N.2       1 <0>        -0.2023
      8 N4          2.0130   -0.4696   -1.4634 N.2       1 <0>        -0.3822
      9 N5          0.7106   -0.4894    1.1889 N.am      1 <0>        -0.7343
     10 C4          0.0512   -0.6335    2.3554 C.2       1 <0>         0.7114
     11 O1         -1.1318   -0.3607    2.4228 O.2       1 <0>        -0.6019
     12 N6          0.7031   -1.0799    3.4473 N.am      1 <0>        -0.7190
     13 C5         -0.0137   -1.2366    4.7154 C.3       1 <0>         0.1048
     14 H2         -0.7632   -0.4506    4.8085 H         1 <0>         0.0858
     15 C6          0.9770   -1.1367    5.8770 C.3       1 <0>        -0.0990
     16 C7          1.5724    0.2720    5.9199 C.3       1 <0>        -0.5969
     17 S1          2.7470    0.3904    7.2971 S.o2      1 <0>         2.4144
     18 O2          2.0288    0.2434    8.5144 O.2       1 <0>        -0.9439
     19 O3          3.8406   -0.4771    7.0309 O.2       1 <0>        -0.9432
     20 C8          3.3317    2.1035    7.1791 C.3       1 <0>        -0.6600
     21 C9         -0.6907   -2.5826    4.7468 C.2       1 <0>         0.4892
     22 O4         -0.4402   -3.4111    3.8882 O.co2     1 <0>        -0.6780
     23 O5         -1.4890   -2.8430    5.6308 O.co2     1 <0>        -0.7041
     24 H3          1.0039    1.9031    0.0027 H         1 <0>         0.0531
     25 H4         -0.5459    1.8868   -0.8726 H         1 <0>         0.0558
     26 H5         -0.5289    1.8773    0.9072 H         1 <0>         0.0568
     27 H6          1.6544   -0.7070    1.1351 H         1 <0>         0.3963
     28 H7          1.6468   -1.2976    3.3936 H         1 <0>         0.3860
     29 H8          0.4597   -1.3413    6.8143 H         1 <0>         0.0965
     30 H9          1.7760   -1.8647    5.7366 H         1 <0>         0.0790
     31 H10         2.0897    0.4766    4.9825 H         1 <0>         0.1313
     32 H11         0.7734    1.0000    6.0603 H         1 <0>         0.1324
     33 H12         2.4869    2.7839    7.2867 H         1 <0>         0.1259
     34 H13         4.0561    2.2956    7.9706 H         1 <0>         0.1234
     35 H14         3.8033    2.2605    6.2090 H         1 <0>         0.1272
@<TRIPOS>BOND
     1    1    2 1
     2    1   24 1
     3    1   25 1
     4    1   26 1
     5    2    3 1
     6    2    4 1
     7    2    9 1
     8    4    5 1
     9    4    8 2
    10    5    6 1
    11    6    7 2
    12    7    8 1
    13    9   10 am
    14    9   27 1
    15   10   11 2
    16   10   12 am
    17   12   13 1
    18   12   28 1
    19   13   14 1
    20   13   15 1
    21   13   21 1
    22   15   16 1
    23   15   29 1
    24   15   30 1
    25   16   17 1
    26   16   31 1
    27   16   32 1
    28   17   18 2
    29   17   19 2
    30   17   20 1
    31   20   33 1
    32   20   34 1
    33   20   35 1
    34   21   22 2
    35   21   23 1
@<TRIPOS>MOLECULE
ZINC62831830
   32    32     0     0     0
SMALL
USER_CHARGES

@<TRIPOS>ATOM
      1 C1         -0.0187    1.5258    0.0104 C.3       1 <0>        -0.1194
      2 C2          0.0021   -0.0041    0.0020 C.3       1 <0>        -0.5679
      3 H1         -1.0205   -0.3814    0.0098 H         1 <0>         0.1512
      4 C3          0.7309   -0.5033    1.2229 C.2       1 <0>         0.4894
      5 O1          1.9065   -0.7744    1.1560 O.2       1 <0>        -0.5001
      6 O2          0.0742   -0.6468    2.3847 O.3       1 <0>        -0.3487
      7 C4          0.8275   -1.1246    3.5011 C.3       1 <0>         0.0293
      8 S1          0.8511   -0.5891   -1.4904 S.o2      1 <0>         2.5101
      9 O3          2.1663   -0.0538   -1.5470 O.2       1 <0>        -1.0121
     10 O4          0.6275   -1.9812   -1.6669 O.2       1 <0>        -1.0336
     11 N1          0.0476    0.1306   -2.7469 N.2       1 <0>        -0.9935
     12 C5          0.4480   -0.1078   -4.0539 C.ar      1 <0>         0.3360
     13 C6          1.5165   -0.9520   -4.3131 C.ar      1 <0>        -0.3466
     14 C7          1.9114   -1.1857   -5.6234 C.ar      1 <0>         0.2399
     15 C8          1.2379   -0.5741   -6.6815 C.ar      1 <0>        -0.3087
     16 C9          0.1858    0.2588   -6.4409 C.ar      1 <0>        -0.0168
     17 C10        -0.2319    0.5017   -5.1254 C.ar      1 <0>        -0.2425
     18 C11        -1.3681    1.3920   -4.8658 C.2       1 <0>         0.5329
     19 O5         -1.9574    1.9206   -5.7996 O.co2     1 <0>        -0.7467
     20 O6         -1.7272    1.6066   -3.7154 O.co2     1 <0>        -0.6636
     21 N2          2.9826   -2.0321   -5.8824 N.pl3     1 <0>        -0.8909
     22 H2          1.0039    1.9031    0.0027 H         1 <0>         0.0638
     23 H3         -0.5459    1.8868   -0.8726 H         1 <0>         0.1199
     24 H4         -0.5289    1.8773    0.9072 H         1 <0>         0.0582
     25 H5          1.2336   -2.1095    3.2706 H         1 <0>         0.0587
     26 H6          1.6449   -0.4344    3.7100 H         1 <0>         0.0582
     27 H7          0.1787   -1.1943    4.3742 H         1 <0>         0.0976
     28 H8          2.0410   -1.4268   -3.4971 H         1 <0>         0.0907
     29 H9          1.5524   -0.7615   -7.6976 H         1 <0>         0.0855
     30 H10        -0.3297    0.7283   -7.2656 H         1 <0>         0.1051
     31 H11         3.4525   -2.4581   -5.1485 H         1 <0>         0.3841
     32 H12         3.2604   -2.1969   -6.7970 H         1 <0>         0.3807
@<TRIPOS>BOND
     1    1    2 1
     2    1   22 1
     3    1   23 1
     4    1   24 1
     5    2    3 1
     6    2    4 1
     7    2    8 1
     8    4    5 2
     9    4    6 1
    10    6    7 1
    11    7   25 1
    12    7   26 1
    13    7   27 1
    14    8    9 2
    15    8   10 2
    16    8   11 1
    17   11   12 1
    18   12   17 ar
    19   12   13 ar
    20   13   14 ar
    21   13   28 1
    22   14   15 ar
    23   14   21 1
    24   15   16 ar
    25   15   29 1
    26   16   17 ar
    27   16   30 1
    28   17   18 1
    29   18   19 2
    30   18   20 1
    31   21   31 1
    32   21   32 1
@<TRIPOS>MOLECULE
ZINC13422025
   33    33     0     0     0
SMALL
USER_CHARGES
4-[2-(isopropylamino)-2-oxo-ethoxy]benzene-1,3-dicarboxylic acid
@<TRIPOS>ATOM
      1 C1          5.7901   -2.8265    1.3663 C.3       1 <0>        -0.1644
      2 C2          5.2560   -2.7455   -0.0652 C.3       1 <0>         0.1376
      3 C3          5.2377   -4.1453   -0.6826 C.3       1 <0>        -0.1571
      4 N1          3.8959   -2.2012   -0.0488 N.am      1 <0>        -0.7354
      5 C4          3.7041   -0.8672   -0.0393 C.2       1 <0>         0.5119
      6 O1          4.6573   -0.1174   -0.0443 O.2       1 <0>        -0.4912
      7 C5          2.3051   -0.3072   -0.0225 C.3       1 <0>         0.0344
      8 O2          2.3635    1.1206   -0.0149 O.3       1 <0>        -0.2469
      9 C6          1.1828    1.7843    0.0003 C.ar      1 <0>         0.1462
     10 C7         -0.0126    1.0758    0.0080 C.ar      1 <0>        -0.2512
     11 C8         -1.2149    1.7450    0.0173 C.ar      1 <0>        -0.0410
     12 C9         -1.2431    3.1450    0.0308 C.ar      1 <0>        -0.1748
     13 C10        -0.0508    3.8658    0.0233 C.ar      1 <0>        -0.0018
     14 C11         1.1667    3.1884    0.0080 C.ar      1 <0>        -0.1635
     15 C12         2.4333    3.9431    0.0005 C.2       1 <0>         0.4938
     16 O3          3.4937    3.3501   -0.0124 O.co2     1 <0>        -0.6151
     17 C13        -2.5351    3.8565    0.0475 C.2       1 <0>         0.4994
     18 O4         -2.5596    5.0713    0.0546 O.co2     1 <0>        -0.6343
     19 H1          5.1458   -3.4764    1.9583 H         1 <0>         0.0542
     20 H2          6.8020   -3.2315    1.3541 H         1 <0>         0.0611
     21 H3          5.8032   -1.8293    1.8062 H         1 <0>         0.0642
     22 H4          5.9003   -2.0956   -0.6572 H         1 <0>         0.0877
     23 H5          4.8571   -4.0876   -1.7024 H         1 <0>         0.0609
     24 H6          6.2495   -4.5503   -0.6948 H         1 <0>         0.0687
     25 H7          4.5933   -4.7952   -0.0906 H         1 <0>         0.0587
     26 H8          3.1335   -2.8009   -0.0448 H         1 <0>         0.3968
     27 H9          1.7855   -0.6543    0.8706 H         1 <0>         0.0824
     28 H10         1.7682   -0.6442   -0.9092 H         1 <0>         0.0824
     29 H11         0.0021   -0.0041    0.0020 H         1 <0>         0.1137
     30 H12        -2.1404    1.1882    0.0183 H         1 <0>         0.1252
     31 H13        -0.0703    4.9456    0.0289 H         1 <0>         0.1419
     32 O5          2.4149    5.2904    0.0079 O.co2     1 <0>        -0.7689
     33 O6         -3.6881    3.1594    0.0547 O.co2     1 <0>        -0.7754
@<TRIPOS>BOND
     1    1    2 1
     2    1   19 1
     3    1   20 1
     4    1   21 1
     5    2    3 1
     6    2    4 1
     7    2   22 1
     8    3   23 1
     9    3   24 1
    10    3   25 1
    11    4    5 am
    12    4   26 1
    13    5    6 2
    14    5    7 1
    15    7    8 1
    16    7   27 1
    17    7   28 1
    18    8    9 1
    19    9   14 ar
    20    9   10 ar
    21   10   11 ar
    22   10   29 1
    23   11   12 ar
    24   11   30 1
    25   12   13 ar
    26   12   17 1
    27   13   14 ar
    28   13   31 1
    29   14   15 1
    30   15   16 2
    31   15   32 1
    32   17   18 2
    33   17   33 1
@<TRIPOS>MOLECULE
ZINC20215196
   28    29     0     0     0
SMALL
USER_CHARGES

@<TRIPOS>ATOM
      1 C1          1.1395   -0.5470    0.5861 C.ar      1 <0>        -0.1765
      2 C2          2.3183    0.1401    0.5756 C.ar      1 <0>        -0.0552
      3 C3          2.3916    1.3992   -0.0327 C.ar      1 <0>        -0.1868
      4 C4          1.2465    1.9514   -0.6323 C.ar      1 <0>         0.1526
      5 C5          0.0571    1.2445   -0.6155 C.ar      1 <0>        -0.1691
      6 C6          0.0016   -0.0034   -0.0072 C.ar      1 <0>         0.1601
      7 N1         -1.1958   -0.7137    0.0097 N.am      1 <0>        -0.6644
      8 C7         -2.3672   -0.0574    0.1261 C.2       1 <0>         0.6050
      9 O1         -2.3848    1.1595    0.1330 O.2       1 <0>        -0.5406
     10 C8         -3.6203   -0.8094    0.2445 C.2       1 <0>        -0.0950
     11 C9         -4.8850   -0.2725    0.3640 C.2       1 <0>        -0.1204
     12 C10        -5.7796   -1.3438    0.4486 C.2       1 <0>        -0.1911
     13 C11        -5.0622   -2.4908    0.3809 C.2       1 <0>         0.0294
     14 N2         -3.7493   -2.1799    0.2508 N.2       1 <0>        -0.4951
     15 N3         -7.2498   -1.2424    0.5879 N.pl3     1 <0>         0.0912
     16 O2         -7.7788   -0.1565    0.6382 O.2       1 <0>        -0.2329
     17 O3         -7.9215   -2.2456    0.6514 O.3       1 <0>        -0.2345
     18 O4          1.3069    3.1703   -1.2237 O.3       1 <0>        -0.4727
     19 C12         3.6596    2.1399   -0.0437 C.2       1 <0>         0.5242
     20 O5          4.6550    1.6570    0.4795 O.co2     1 <0>        -0.7011
     21 O6          3.7209    3.2402   -0.5761 O.co2     1 <0>        -0.6783
     22 H1          1.0890   -1.5196    1.0530 H         1 <0>         0.1175
     23 H2          3.1959   -0.2877    1.0374 H         1 <0>         0.1290
     24 H3         -0.8270    1.6625   -1.0738 H         1 <0>         0.1389
     25 H4         -1.1869   -1.6810   -0.0624 H         1 <0>         0.4138
     26 H5         -5.1369    0.7774    0.3881 H         1 <0>         0.1246
     27 H6         -5.4701   -3.4901    0.4195 H         1 <0>         0.1480
     28 H7          1.5412    3.1413   -2.1614 H         1 <0>         0.3794
@<TRIPOS>BOND
     1    1    6 ar
     2    1    2 ar
     3    1   22 1
     4    2    3 ar
     5    2   23 1
     6    3    4 ar
     7    3   19 1
     8    4    5 ar
     9    4   18 1
    10    5    6 ar
    11    5   24 1
    12    6    7 1
    13    7    8 am
    14    7   25 1
    15    8    9 2
    16    8   10 1
    17   10   14 1
    18   10   11 2
    19   11   12 1
    20   11   26 1
    21   12   13 2
    22   12   15 1
    23   13   14 1
    24   13   27 1
    25   15   16 2
    26   15   17 1
    27   18   28 1
    28   19   20 2
    29   19   21 1
@<TRIPOS>MOLECULE
ZINC13637369
   38    39     0     0     0
SMALL
USER_CHARGES

@<TRIPOS>ATOM
      1 C1          0.0084    1.5031    0.0069 C.3       1 <0>        -0.1094
      2 C2          0.0217   -0.0038   -0.0005 C.ar      1 <0>        -0.1112
      3 C3          0.7771   -0.6917    0.9315 C.ar      1 <0>        -0.1000
      4 C4          0.7914   -2.0727    0.9274 C.ar      1 <0>        -0.1177
      5 C5          0.0458   -2.7706   -0.0138 C.ar      1 <0>         0.1518
      6 C6         -0.7120   -2.0768   -0.9480 C.ar      1 <0>        -0.1446
      7 C7         -0.7259   -0.6958   -0.9356 C.ar      1 <0>        -0.1025
      8 N1          0.0586   -4.1697   -0.0209 N.am      1 <0>        -0.6743
      9 C8          0.1754   -4.8485    1.1376 C.2       1 <0>         0.5377
     10 O1          0.1732   -4.2513    2.1932 O.2       1 <0>        -0.5010
     11 C9          0.3087   -6.3495    1.1213 C.3       1 <0>        -0.1451
     12 S1          0.4460   -6.9629    2.8229 S.3       1 <0>         0.0277
     13 C10         0.5930   -8.7088    2.6361 C.ar      1 <0>         0.2491
     14 N2          0.7137   -9.4761    3.7127 N.ar      1 <0>        -0.5764
     15 C11         0.8242  -10.7919    3.5658 C.ar      1 <0>         0.4209
     16 C12         0.8094  -11.3255    2.2765 C.ar      1 <0>        -0.0383
     17 N3          0.6868  -10.5125    1.2441 N.ar      1 <0>        -0.2062
     18 N4          0.5763   -9.2424    1.4207 N.ar      1 <0>        -0.4103
     19 C13         0.9326  -12.8126    2.0654 C.3       1 <0>        -0.0105
     20 C14        -0.4607  -13.4446    2.0637 C.3       1 <0>        -0.1654
     21 C15        -0.3376  -14.9317    1.8526 C.2       1 <0>         0.4976
     22 O2          0.7627  -15.4389    1.7162 O.co2     1 <0>        -0.7014
     23 O3         -1.3382  -15.6275    1.8183 O.co2     1 <0>        -0.7189
     24 O4          0.9493  -11.5998    4.6467 O.3       1 <0>        -0.6589
     25 H1         -0.7937    1.8562    0.6550 H         1 <0>         0.0667
     26 H2          0.9644    1.8731    0.3775 H         1 <0>         0.0635
     27 H3         -0.1551    1.8700   -1.0064 H         1 <0>         0.0625
     28 H4          1.3567   -0.1484    1.6631 H         1 <0>         0.1236
     29 H5          1.3821   -2.6094    1.6550 H         1 <0>         0.1376
     30 H6         -1.2926   -2.6167   -1.6815 H         1 <0>         0.1258
     31 H7         -1.3183   -0.1557   -1.6593 H         1 <0>         0.1226
     32 H8         -0.0167   -4.6512   -0.8596 H         1 <0>         0.4144
     33 H9         -0.5697   -6.7872    0.6470 H         1 <0>         0.1226
     34 H10         1.2011   -6.6289    0.5612 H         1 <0>         0.1233
     35 H11         1.4199  -13.0048    1.1095 H         1 <0>         0.0615
     36 H12         1.5271  -13.2457    2.8698 H         1 <0>         0.0771
     37 H13        -0.9480  -13.2525    3.0196 H         1 <0>         0.0562
     38 H14        -1.0552  -13.0115    1.2593 H         1 <0>         0.0497
@<TRIPOS>BOND
     1    1    2 1
     2    1   25 1
     3    1   26 1
     4    1   27 1
     5    2    7 ar
     6    2    3 ar
     7    3    4 ar
     8    3   28 1
     9    4    5 ar
    10    4   29 1
    11    5    6 ar
    12    5    8 1
    13    6    7 ar
    14    6   30 1
    15    7   31 1
    16    8    9 am
    17    8   32 1
    18    9   10 2
    19    9   11 1
    20   11   12 1
    21   11   33 1
    22   11   34 1
    23   12   13 1
    24   13   14 ar
    25   13   18 ar
    26   14   15 ar
    27   15   24 1
    28   15   16 ar
    29   16   17 ar
    30   16   19 1
    31   17   18 ar
    32   19   20 1
    33   19   35 1
    34   19   36 1
    35   20   21 1
    36   20   37 1
    37   20   38 1
    38   21   22 2
    39   21   23 1
@<TRIPOS>MOLECULE
ZINC61117794
   26    27     0     0     0
SMALL
USER_CHARGES

@<TRIPOS>ATOM
      1 C1         -0.0167    1.3793    0.0096 C.ar      1 <0>        -0.2023
      2 C2          1.1767    2.0892    0.0020 C.ar      1 <0>         0.3262
      3 C3          2.3874    1.4095   -0.0132 C.ar      1 <0>        -0.2888
      4 C4          2.4033    0.0261   -0.0207 C.ar      1 <0>         0.1525
      5 C5          1.2114   -0.6813   -0.0136 C.ar      1 <0>        -0.1005
      6 C6          0.0021   -0.0041    0.0020 C.ar      1 <0>         0.1353
      7 F1         -1.1588   -0.6951    0.0094 F         1 <0>        -0.1401
      8 F2          1.2283   -2.0322   -0.0219 F         1 <0>        -0.1484
      9 F3          3.5811   -0.6355   -0.0355 F         1 <0>        -0.1394
     10 N1          1.1591    3.4871    0.0093 N.2       1 <0>        -1.0725
     11 S1          2.5827    4.3331    0.0002 S.o2      1 <0>         2.6469
     12 O1          3.2249    4.0608    1.2382 O.2       1 <0>        -1.0397
     13 O2          3.2016    4.0733   -1.2523 O.2       1 <0>        -1.0288
     14 C7          2.1708    6.0462    0.0127 C.2       1 <0>        -0.7005
     15 C8          1.9626    6.8499   -1.1104 C.2       1 <0>        -0.0804
     16 C9          1.6638    8.1178   -0.6486 C.2       1 <0>        -0.0508
     17 N2          1.6928    8.0731    0.7285 N.pl3     1 <0>        -0.5178
     18 H1          1.5208    8.8207    1.3220 H         1 <0>         0.4144
     19 C10         1.9940    6.8166    1.1143 C.2       1 <0>         0.0808
     20 C11         1.3712    9.2907   -1.4699 C.2       1 <0>         0.5531
     21 O3          1.1199   10.3645   -0.9368 O.co2     1 <0>        -0.7047
     22 O4          1.3772    9.2000   -2.6915 O.co2     1 <0>        -0.6758
     23 H2         -0.9590    1.9067    0.0260 H         1 <0>         0.1413
     24 H3          3.3163    1.9605   -0.0194 H         1 <0>         0.1256
     25 H4          2.0236    6.5397   -2.1430 H         1 <0>         0.1449
     26 H5          2.0831    6.4790    2.1363 H         1 <0>         0.1694
@<TRIPOS>BOND
     1    1    6 ar
     2    1    2 ar
     3    1   23 1
     4    2    3 ar
     5    2   10 1
     6    3    4 ar
     7    3   24 1
     8    4    5 ar
     9    4    9 1
    10    5    6 ar
    11    5    8 1
    12    6    7 1
    13   10   11 1
    14   11   12 2
    15   11   13 2
    16   11   14 1
    17   14   19 2
    18   14   15 1
    19   15   16 2
    20   15   25 1
    21   16   17 1
    22   16   20 1
    23   17   18 1
    24   17   19 1
    25   19   26 1
    26   20   21 2
    27   20   22 1
@<TRIPOS>MOLECULE
ZINC65348403
   26    27     0     0     0
SMALL
USER_CHARGES

@<TRIPOS>ATOM
      1 C1         -0.0168    1.3906    0.0097 C.ar      1 <0>        -0.0793
      2 C2          1.1818    2.0977    0.0020 C.ar      1 <0>        -0.0023
      3 C3          2.3953    1.4100   -0.0132 C.ar      1 <0>        -0.0710
      4 C4          2.4103    0.0264   -0.0213 C.ar      1 <0>         0.0636
      5 C5          1.2239   -0.6829   -0.0138 C.ar      1 <0>        -0.1169
      6 C6          0.0021   -0.0041    0.0020 C.ar      1 <0>        -0.1230
      7 C7         -1.2646   -0.7611    0.0105 C.2       1 <0>         0.5286
      8 O1         -2.3327   -0.1657    0.0243 O.co2     1 <0>        -0.6914
      9 O2         -1.2462   -1.9838    0.0038 O.co2     1 <0>        -0.6944
     10 F1          3.5890   -0.6337   -0.0370 F         1 <0>        -0.1584
     11 C8          1.1690    3.5800    0.0096 C.2       1 <0>        -0.0995
     12 C9          0.6795    4.2570    1.0898 C.2       1 <0>         0.1002
     13 N1          0.6616    5.6106    1.1115 N.am      1 <0>        -0.6038
     14 C10         1.1231    6.3321    0.0740 C.2       1 <0>         0.5116
     15 C11         1.6402    5.6863   -1.0691 C.2       1 <0>        -0.2266
     16 C12         1.6714    4.3047   -1.1045 C.2       1 <0>        -0.0257
     17 C13         2.2126    3.5926   -2.2855 C.2       1 <0>         0.5132
     18 O3          2.6420    4.2269   -3.2378 O.co2     1 <0>        -0.6841
     19 O4          2.2299    2.3707   -2.3074 O.co2     1 <0>        -0.6443
     20 O5          1.0940    7.5507    0.1215 O.2       1 <0>        -0.5853
     21 H1         -0.9582    1.9198    0.0260 H         1 <0>         0.1239
     22 H2          3.3254    1.9588   -0.0192 H         1 <0>         0.1154
     23 H3          1.2410   -1.7627   -0.0204 H         1 <0>         0.1284
     24 H4          0.3012    3.7054    1.9378 H         1 <0>         0.1630
     25 H5          2.0108    6.2636   -1.9031 H         1 <0>         0.1518
     26 H6          0.3089    6.0692    1.8902 H         1 <0>         0.4061
@<TRIPOS>BOND
     1    1    6 ar
     2    1    2 ar
     3    1   21 1
     4    2    3 ar
     5    2   11 1
     6    3    4 ar
     7    3   22 1
     8    4    5 ar
     9    4   10 1
    10    5    6 ar
    11    5   23 1
    12    6    7 1
    13    7    8 2
    14    7    9 1
    15   11   16 1
    16   11   12 2
    17   12   13 1
    18   12   24 1
    19   13   14 am
    20   13   26 1
    21   14   15 1
    22   14   20 2
    23   15   16 2
    24   15   25 1
    25   16   17 1
    26   17   18 2
    27   17   19 1
@<TRIPOS>MOLECULE
ZINC15970385
   39    39     0     0     0
SMALL
USER_CHARGES
(2R,3R)-2-[(4-methoxyphenyl)carbamoylamino]-3-methyl-pentanoic acid
@<TRIPOS>ATOM
      1 C1          4.7301    0.8401   -1.3889 C.3       1 <0>        -0.1480
      2 C2          3.6616    1.6434   -0.6445 C.3       1 <0>        -0.1262
      3 C3          2.3471    0.8606   -0.6383 C.3       1 <0>        -0.0755
      4 H1          2.0683    0.6105   -1.6619 H         1 <0>         0.0584
      5 C4          2.5234   -0.4258    0.1711 C.3       1 <0>        -0.1450
      6 C5          1.2476    1.7152   -0.0045 C.3       1 <0>         0.1172
      7 H2          1.1220    2.6316   -0.5811 H         1 <0>         0.0874
      8 C6          1.6331    2.0609    1.4107 C.2       1 <0>         0.4636
      9 O1          0.9287    1.7166    2.3300 O.co2     1 <0>        -0.6303
     10 N1         -0.0111    0.9656    0.0015 N.am      1 <0>        -0.7099
     11 C7         -1.1872    1.6236    0.0184 C.2       1 <0>         0.7077
     12 O2         -1.2035    2.8393    0.0337 O.2       1 <0>        -0.5751
     13 N2         -2.3452    0.9341    0.0182 N.am      1 <0>        -0.6911
     14 C8         -3.5655    1.6137    0.1335 C.ar      1 <0>         0.1454
     15 C9         -4.6199    1.0351    0.8270 C.ar      1 <0>        -0.1140
     16 C10        -5.8202    1.7078    0.9451 C.ar      1 <0>        -0.1886
     17 C11        -5.9761    2.9564    0.3613 C.ar      1 <0>         0.0987
     18 C12        -4.9249    3.5326   -0.3366 C.ar      1 <0>        -0.1308
     19 C13        -3.7222    2.8635   -0.4505 C.ar      1 <0>        -0.0817
     20 O3         -7.1599    3.6160    0.4736 O.3       1 <0>        -0.3208
     21 C14        -8.1991    2.9637    1.2060 C.3       1 <0>         0.0288
     22 H3          4.8794   -0.1168   -0.8887 H         1 <0>         0.0494
     23 H4          4.4054    0.6670   -2.4149 H         1 <0>         0.0406
     24 H5          5.6666    1.3978   -1.3933 H         1 <0>         0.0478
     25 H6          3.5123    2.6003   -1.1447 H         1 <0>         0.0546
     26 H7          3.9863    1.8165    0.3815 H         1 <0>         0.1108
     27 H8          1.5869   -0.9835    0.1755 H         1 <0>         0.0419
     28 H9          3.3067   -1.0346   -0.2804 H         1 <0>         0.0527
     29 H10         2.8022   -0.1757    1.1947 H         1 <0>         0.0649
     30 H11         0.0019   -0.0042   -0.0108 H         1 <0>         0.3884
     31 H12        -2.3341   -0.0325   -0.0616 H         1 <0>         0.4014
     32 H13        -4.5002    0.0608    1.2774 H         1 <0>         0.1261
     33 H14        -6.6389    1.2599    1.4886 H         1 <0>         0.1276
     34 H15        -5.0470    4.5047   -0.7912 H         1 <0>         0.1312
     35 H16        -2.9037    3.3123   -0.9936 H         1 <0>         0.1495
     36 H17        -7.8657    2.7843    2.2282 H         1 <0>         0.0534
     37 H18        -9.0866    3.5964    1.2191 H         1 <0>         0.0957
     38 H19        -8.4377    2.0129    0.7295 H         1 <0>         0.0524
     39 O4          2.7590    2.7515    1.6500 O.co2     1 <0>        -0.7585
@<TRIPOS>BOND
     1    1    2 1
     2    1   22 1
     3    1   23 1
     4    1   24 1
     5    2    3 1
     6    2   25 1
     7    2   26 1
     8    3    4 1
     9    3    5 1
    10    3    6 1
    11    5   27 1
    12    5   28 1
    13    5   29 1
    14    6    7 1
    15    6    8 1
    16    6   10 1
    17    8    9 2
    18    8   39 1
    19   10   11 am
    20   10   30 1
    21   11   12 2
    22   11   13 am
    23   13   14 1
    24   13   31 1
    25   14   19 ar
    26   14   15 ar
    27   15   16 ar
    28   15   32 1
    29   16   17 ar
    30   16   33 1
    31   17   18 ar
    32   17   20 1
    33   18   19 ar
    34   18   34 1
    35   19   35 1
    36   20   21 1
    37   21   36 1
    38   21   37 1
    39   21   38 1
@<TRIPOS>MOLECULE
ZINC36781070
   40    40     0     0     0
SMALL
USER_CHARGES

@<TRIPOS>ATOM
      1 C1         -0.0187    1.5258    0.0104 C.3       1 <0>        -0.1495
      2 C2          0.0021   -0.0041    0.0020 C.3       1 <0>        -0.1369
      3 C3          0.7421   -0.5109    1.2415 C.3       1 <0>         0.1179
      4 N1          0.7619   -1.9757    1.2335 N.am      1 <0>        -0.7316
      5 C4          1.3642   -2.6470    2.2350 C.2       1 <0>         0.5120
      6 O1          1.8898   -2.0384    3.1429 O.2       1 <0>        -0.5379
      7 C5          1.3847   -4.1539    2.2267 C.3       1 <0>         0.1056
      8 N2          2.0932   -4.6392    3.4136 N.am      1 <0>        -0.7375
      9 C6          2.2364   -5.9636    3.6184 C.2       1 <0>         0.5303
     10 O2          1.7786   -6.7536    2.8202 O.2       1 <0>        -0.5059
     11 C7          2.9652   -6.4628    4.8393 C.3       1 <0>        -0.1004
     12 C8          2.9860   -7.9926    4.8309 C.3       1 <0>        -0.1203
     13 C9          1.5465   -8.5411    4.9133 C.3       1 <0>        -0.0848
     14 C10         1.6702   -9.7997    5.8076 C.3       1 <0>        -0.1203
     15 C11         2.7132   -9.3651    6.8670 C.3       1 <0>        -0.1170
     16 C12         3.7278   -8.5166    6.0730 C.3       1 <0>        -0.0994
     17 C13         3.6590   -8.4925    3.5786 C.2       1 <0>         0.5183
     18 O3          4.0992   -7.6986    2.7647 O.co2     1 <0>        -0.6927
     19 O4          3.7633   -9.6908    3.3794 O.co2     1 <0>        -0.7022
     20 H1          1.0039    1.9031    0.0027 H         1 <0>         0.0578
     21 H2         -0.5459    1.8868   -0.8726 H         1 <0>         0.0594
     22 H3         -0.5289    1.8773    0.9072 H         1 <0>         0.0573
     23 H4         -1.0205   -0.3814    0.0098 H         1 <0>         0.0692
     24 H5          0.5123   -0.3556   -0.8948 H         1 <0>         0.0700
     25 H6          1.7647   -0.1336    1.2338 H         1 <0>         0.0677
     26 H7          0.2319   -0.1594    2.1383 H         1 <0>         0.0671
     27 H8          0.3416   -2.4625    0.5073 H         1 <0>         0.4039
     28 H9          0.3621   -4.5312    2.2345 H         1 <0>         0.0918
     29 H10         1.8949   -4.5054    1.3299 H         1 <0>         0.0960
     30 H11         2.4594   -4.0073    4.0520 H         1 <0>         0.4034
     31 H12         3.9878   -6.0855    4.8316 H         1 <0>         0.0856
     32 H13         2.4550   -6.1113    5.7361 H         1 <0>         0.0700
     33 H14         0.8849   -7.8083    5.3754 H         1 <0>         0.0409
     34 H15         1.1840   -8.8119    3.9217 H         1 <0>         0.0678
     35 H16         0.7156  -10.0341    6.2788 H         1 <0>         0.0487
     36 H17         2.0363  -10.6490    5.2307 H         1 <0>         0.0748
     37 H18         2.2401   -8.7654    7.6445 H         1 <0>         0.0527
     38 H19         3.2022  -10.2372    7.3010 H         1 <0>         0.0548
     39 H20         4.5741   -9.1331    5.7701 H         1 <0>         0.0644
     40 H21         4.0730   -7.6809    6.6819 H         1 <0>         0.0489
@<TRIPOS>BOND
     1    1    2 1
     2    1   20 1
     3    1   21 1
     4    1   22 1
     5    2    3 1
     6    2   23 1
     7    2   24 1
     8    3    4 1
     9    3   25 1
    10    3   26 1
    11    4    5 am
    12    4   27 1
    13    5    6 2
    14    5    7 1
    15    7    8 1
    16    7   28 1
    17    7   29 1
    18    8    9 am
    19    8   30 1
    20    9   10 2
    21    9   11 1
    22   11   12 1
    23   11   31 1
    24   11   32 1
    25   12   16 1
    26   12   13 1
    27   12   17 1
    28   13   14 1
    29   13   33 1
    30   13   34 1
    31   14   15 1
    32   14   35 1
    33   14   36 1
    34   15   16 1
    35   15   37 1
    36   15   38 1
    37   16   39 1
    38   16   40 1
    39   17   18 2
    40   17   19 1
@<TRIPOS>MOLECULE
ZINC37789007
   36    37     0     0     0
SMALL
USER_CHARGES

@<TRIPOS>ATOM
      1 C1         -0.3613    1.5845   -0.2231 C.2       1 <0>        -0.1645
      2 C2         -0.1911    0.2857   -0.2373 C.2       1 <0>        -0.1785
      3 C3         -1.3799   -0.6315   -0.1084 C.3       1 <0>         0.1471
      4 N1         -1.4048   -1.5607   -1.2407 N.am      1 <0>        -0.7273
      5 C4         -2.3859   -2.4798   -1.3367 C.2       1 <0>         0.5651
      6 O1         -3.2502   -2.5378   -0.4836 O.2       1 <0>        -0.5430
      7 C5         -2.4110   -3.4159   -2.4776 C.ar      1 <0>        -0.1674
      8 C6         -1.4150   -3.3544   -3.4560 C.ar      1 <0>        -0.0615
      9 C7         -1.4412   -4.2294   -4.5185 C.ar      1 <0>        -0.1339
     10 C8         -2.4578   -5.1739   -4.6192 C.ar      1 <0>         0.1897
     11 C9         -3.4509   -5.2378   -3.6468 C.ar      1 <0>        -0.1609
     12 C10        -3.4275   -4.3696   -2.5787 C.ar      1 <0>        -0.0352
     13 N2         -2.4818   -6.0580   -5.6972 N.am      1 <0>        -0.6757
     14 C11        -1.3263   -6.4979   -6.2337 C.2       1 <0>         0.5488
     15 O2         -0.2681   -6.2018   -5.7207 O.2       1 <0>        -0.5156
     16 C12        -1.3494   -7.3575   -7.4713 C.3       1 <0>        -0.1858
     17 H1         -2.1406   -7.1314   -8.1861 H         1 <0>         0.1283
     18 C13        -0.9286   -8.8210   -7.3227 C.3       1 <0>        -0.1322
     19 C14        -0.0048   -7.8267   -8.0307 C.3       1 <0>        -0.1678
     20 H2          0.8964   -7.5136   -7.5036 H         1 <0>         0.1066
     21 C15         0.1241   -7.9413   -9.5278 C.2       1 <0>         0.5167
     22 O3          1.1534   -7.5912  -10.0796 O.co2     1 <0>        -0.6878
     23 O4         -0.8009   -8.3842  -10.1872 O.co2     1 <0>        -0.6923
     24 H3          0.4906    2.2418   -0.3155 H         1 <0>         0.1040
     25 H4         -1.3541    1.9980   -0.1235 H         1 <0>         0.1004
     26 H5          0.8012   -0.1278   -0.3413 H         1 <0>         0.1167
     27 H6         -1.3053   -1.1944    0.8220 H         1 <0>         0.0768
     28 H7         -2.2958   -0.0405   -0.1030 H         1 <0>         0.0723
     29 H8         -0.7153   -1.5144   -1.9214 H         1 <0>         0.4023
     30 H9         -0.6260   -2.6211   -3.3788 H         1 <0>         0.1269
     31 H10        -0.6718   -4.1824   -5.2750 H         1 <0>         0.1433
     32 H11        -4.2387   -5.9721   -3.7279 H         1 <0>         0.1341
     33 H12        -4.1962   -4.4227   -1.8219 H         1 <0>         0.1385
     34 H13        -3.3300   -6.3564   -6.0609 H         1 <0>         0.4156
     35 H14        -0.6351   -9.1620   -6.3299 H         1 <0>         0.0874
     36 H15        -1.4427   -9.5577   -7.9401 H         1 <0>         0.1090
@<TRIPOS>BOND
     1    1    2 2
     2    1   24 1
     3    1   25 1
     4    2    3 1
     5    2   26 1
     6    3    4 1
     7    3   27 1
     8    3   28 1
     9    4    5 am
    10    4   29 1
    11    5    6 2
    12    5    7 1
    13    7   12 ar
    14    7    8 ar
    15    8    9 ar
    16    8   30 1
    17    9   10 ar
    18    9   31 1
    19   10   11 ar
    20   10   13 1
    21   11   12 ar
    22   11   32 1
    23   12   33 1
    24   13   14 am
    25   13   34 1
    26   14   15 2
    27   14   16 1
    28   16   17 1
    29   16   19 1
    30   16   18 1
    31   18   19 1
    32   18   35 1
    33   18   36 1
    34   19   20 1
    35   19   21 1
    36   21   22 2
    37   21   23 1
@<TRIPOS>MOLECULE
ZINC45647866
   38    38     0     0     0
SMALL
USER_CHARGES

@<TRIPOS>ATOM
      1 C1         -0.0183    1.4964    0.0103 C.3       1 <0>        -0.0910
      2 C2          1.4110    2.0430   -0.0004 C.3       1 <0>        -0.1132
      3 C3          2.1915    1.3384   -1.1172 C.3       1 <0>        -0.0990
      4 H1          1.6405    1.4159   -2.0545 H         1 <0>         0.0805
      5 C4          2.3558   -0.1349   -0.7376 C.3       1 <0>        -0.0878
      6 C5          1.0334   -0.7136   -0.3275 C.2       1 <0>        -0.1550
      7 C6          0.0021   -0.0041    0.0020 C.2       1 <0>        -0.1577
      8 C7          3.5668    1.9902   -1.2737 C.3       1 <0>         0.1402
      9 N1          4.2621    1.3949   -2.4176 N.am      1 <0>        -0.7414
     10 C8          5.4989    1.8162   -2.7481 C.2       1 <0>         0.6906
     11 O1          6.0374    2.6900   -2.0973 O.2       1 <0>        -0.5306
     12 N2          6.1385    1.2685   -3.8005 N.am      1 <0>        -0.6959
     13 C9          7.3753    1.6898   -4.1310 C.2       1 <0>         0.5110
     14 O2          7.9125    2.5614   -3.4818 O.2       1 <0>        -0.4569
     15 C10         8.0905    1.0774   -5.3077 C.3       1 <0>        -0.1367
     16 C11         9.4659    1.7293   -5.4642 C.3       1 <0>        -0.0818
     17 C12        10.1920    1.1076   -6.6588 C.3       1 <0>        -0.1831
     18 C13        11.5466    1.7496   -6.8129 C.2       1 <0>         0.4876
     19 O3         11.8987    2.6235   -6.0390 O.co2     1 <0>        -0.6943
     20 O4         12.2905    1.3952   -7.7115 O.co2     1 <0>        -0.7092
     21 H2         -0.5320    1.8459    0.9058 H         1 <0>         0.0729
     22 H3         -0.5490    1.8554   -0.8715 H         1 <0>         0.0737
     23 H4          1.3913    3.1165   -0.1883 H         1 <0>         0.0712
     24 H5          1.8863    1.8447    0.9602 H         1 <0>         0.0694
     25 H6          2.7422   -0.6877   -1.5938 H         1 <0>         0.0711
     26 H7          3.0592   -0.2182    0.0909 H         1 <0>         0.0778
     27 H8          0.9360   -1.7890   -0.3059 H         1 <0>         0.1026
     28 H9         -0.8997   -0.5243    0.2892 H         1 <0>         0.1014
     29 H10         3.4448    3.0606   -1.4396 H         1 <0>         0.0703
     30 H11         4.1513    1.8271   -0.3682 H         1 <0>         0.0698
     31 H12         3.8323    0.6975   -2.9370 H         1 <0>         0.3963
     32 H13         5.7087    0.5711   -4.3199 H         1 <0>         0.4070
     33 H14         8.2125    0.0071   -5.1418 H         1 <0>         0.0942
     34 H15         7.5060    1.2405   -6.2132 H         1 <0>         0.0942
     35 H16         9.3439    2.7997   -5.6300 H         1 <0>         0.0688
     36 H17        10.0504    1.5662   -4.5587 H         1 <0>         0.0688
     37 H18        10.3140    0.0372   -6.4929 H         1 <0>         0.0568
     38 H19         9.6075    1.2706   -7.5643 H         1 <0>         0.0568
@<TRIPOS>BOND
     1    1    7 1
     2    1    2 1
     3    1   21 1
     4    1   22 1
     5    2    3 1
     6    2   23 1
     7    2   24 1
     8    3    4 1
     9    3    5 1
    10    3    8 1
    11    5    6 1
    12    5   25 1
    13    5   26 1
    14    6    7 2
    15    6   27 1
    16    7   28 1
    17    8    9 1
    18    8   29 1
    19    8   30 1
    20    9   10 am
    21    9   31 1
    22   10   11 2
    23   10   12 am
    24   12   13 am
    25   12   32 1
    26   13   14 2
    27   13   15 1
    28   15   16 1
    29   15   33 1
    30   15   34 1
    31   16   17 1
    32   16   35 1
    33   16   36 1
    34   17   18 1
    35   17   37 1
    36   17   38 1
    37   18   19 2
    38   18   20 1
@<TRIPOS>MOLECULE
ZINC53041313
   38    38     0     0     0
SMALL
USER_CHARGES

@<TRIPOS>ATOM
      1 C1         -0.0187    1.5258    0.0104 C.3       1 <0>        -0.1473
      2 C2          0.0021   -0.0041    0.0020 C.3       1 <0>        -0.1152
      3 C3          0.7182   -0.4975   -1.2568 C.3       1 <0>        -0.0801
      4 H1          1.7103   -0.0491   -1.3098 H         1 <0>         0.0589
      5 C4         -0.0892   -0.0968   -2.4931 C.3       1 <0>        -0.1422
      6 C5          0.8493   -2.0210   -1.2049 C.3       1 <0>         0.0933
      7 H2          1.3468   -2.3116   -0.2797 H         1 <0>         0.0787
      8 C6         -0.5215   -2.6451   -1.2556 C.2       1 <0>         0.4975
      9 O1         -1.0228   -2.9288   -2.3301 O.co2     1 <0>        -0.6914
     10 O2         -1.1292   -2.8663   -0.2220 O.co2     1 <0>        -0.6952
     11 N1          1.6385   -2.4825   -2.3496 N.am      1 <0>        -0.7094
     12 C7          2.3088   -3.6496   -2.2794 C.2       1 <0>         0.7057
     13 O3          2.2585   -4.3195   -1.2659 O.2       1 <0>        -0.5921
     14 N2          3.0349   -4.0742   -3.3324 N.am      1 <0>        -0.7518
     15 C8          3.7636   -5.3428   -3.2561 C.3       1 <0>         0.2235
     16 C9          4.4893   -5.5843   -4.5546 C.2       1 <0>        -0.0268
     17 C10         5.7432   -5.1899   -4.8400 C.2       1 <0>        -0.1864
     18 C11         6.0190   -5.6231   -6.1573 C.2       1 <0>        -0.2172
     19 C12         4.9170   -6.2563   -6.5980 C.2       1 <0>        -0.0091
     20 O4          3.9958   -6.2347   -5.6209 O.3       1 <0>        -0.1676
     21 C13         4.7470   -6.8876   -7.9558 C.3       1 <0>        -0.0747
     22 H3          1.0039    1.9031    0.0027 H         1 <0>         0.0460
     23 H4         -0.5459    1.8868   -0.8726 H         1 <0>         0.0530
     24 H5         -0.5289    1.8773    0.9072 H         1 <0>         0.0489
     25 H6          0.5293   -0.3651    0.8851 H         1 <0>         0.0595
     26 H7         -1.0205   -0.3814    0.0098 H         1 <0>         0.0778
     27 H8         -1.0813   -0.5452   -2.4401 H         1 <0>         0.0718
     28 H9         -0.1826    0.9885   -2.5300 H         1 <0>         0.0448
     29 H10         0.4210   -0.4484   -3.3899 H         1 <0>         0.0449
     30 H11         1.6787   -1.9480   -3.1581 H         1 <0>         0.3874
     31 H12         3.0751   -3.5397   -4.1409 H         1 <0>         0.3942
     32 H13         4.4844   -5.2992   -2.4396 H         1 <0>         0.0958
     33 H14         3.0599   -6.1557   -3.0765 H         1 <0>         0.0812
     34 H15         6.4110   -4.6462   -4.1882 H         1 <0>         0.1502
     35 H16         6.9379   -5.4740   -6.7048 H         1 <0>         0.1476
     36 H17         5.0694   -7.9281   -7.9156 H         1 <0>         0.0807
     37 H18         3.6980   -6.8433   -8.2483 H         1 <0>         0.0772
     38 H19         5.3508   -6.3481   -8.6855 H         1 <0>         0.0877
@<TRIPOS>BOND
     1    1    2 1
     2    1   22 1
     3    1   23 1
     4    1   24 1
     5    2    3 1
     6    2   25 1
     7    2   26 1
     8    3    4 1
     9    3    5 1
    10    3    6 1
    11    5   27 1
    12    5   28 1
    13    5   29 1
    14    6    7 1
    15    6    8 1
    16    6   11 1
    17    8    9 2
    18    8   10 1
    19   11   12 am
    20   11   30 1
    21   12   13 2
    22   12   14 am
    23   14   15 1
    24   14   31 1
    25   15   16 1
    26   15   32 1
    27   15   33 1
    28   16   20 1
    29   16   17 2
    30   17   18 1
    31   17   34 1
    32   18   19 2
    33   18   35 1
    34   19   20 1
    35   19   21 1
    36   21   36 1
    37   21   37 1
    38   21   38 1
@<TRIPOS>MOLECULE
ZINC05361152
   41    42     0     0     0
SMALL
USER_CHARGES
5-[2-(3,4-dimethoxyphenyl)acetyl]aminobenzene-1,3-dicarboxylic acid
@<TRIPOS>ATOM
      1 C1          1.6222   -1.0801   -0.0149 C.3       1 <0>         0.0275
      2 O1          1.8692    0.3262   -0.0729 O.3       1 <0>        -0.3093
      3 C2          0.7838    1.1452   -0.0476 C.ar      1 <0>         0.0936
      4 C3         -0.4906    0.6069    0.0314 C.ar      1 <0>        -0.1708
      5 C4         -1.5931    1.4407    0.0508 C.ar      1 <0>        -0.0998
      6 C5         -1.4271    2.8124    0.0032 C.ar      1 <0>        -0.0560
      7 C6         -0.1585    3.3560   -0.0756 C.ar      1 <0>        -0.1528
      8 C7          0.9506    2.5257   -0.1013 C.ar      1 <0>         0.1009
      9 O2          2.1993    3.0588   -0.1784 O.3       1 <0>        -0.3093
     10 C8          2.2944    4.4837   -0.2302 C.3       1 <0>         0.0245
     11 C9         -2.6322    3.7169    0.0305 C.3       1 <0>        -0.0966
     12 C10        -3.1017    3.9709   -1.3788 C.2       1 <0>         0.4986
     13 O3         -2.5154    3.4671   -2.3134 O.2       1 <0>        -0.5029
     14 N1         -4.1730    4.7580   -1.6006 N.am      1 <0>        -0.6650
     15 C11        -4.5429    5.0837   -2.9109 C.ar      1 <0>         0.0873
     16 C12        -3.5690    5.2422   -3.8857 C.ar      1 <0>        -0.0777
     17 C13        -3.9347    5.5615   -5.1950 C.ar      1 <0>        -0.1263
     18 C14        -5.2794    5.7317   -5.5193 C.ar      1 <0>        -0.0366
     19 C15        -6.2549    5.5773   -4.5360 C.ar      1 <0>        -0.1262
     20 C16        -5.8821    5.2528   -3.2299 C.ar      1 <0>        -0.1051
     21 C17        -7.6818    5.7563   -4.8751 C.2       1 <0>         0.4985
     22 O4         -8.5315    5.6211   -4.0176 O.co2     1 <0>        -0.6481
     23 C18        -2.8968    5.7241   -6.2341 C.2       1 <0>         0.4974
     24 O5         -1.7251    5.5756   -5.9506 O.co2     1 <0>        -0.6420
     25 H1          2.5704   -1.6170   -0.0429 H         1 <0>         0.0958
     26 H2          1.0966   -1.3189    0.9097 H         1 <0>         0.0515
     27 H3          1.0112   -1.3771   -0.8673 H         1 <0>         0.0548
     28 H4         -0.6227   -0.4641    0.0732 H         1 <0>         0.1330
     29 H5         -2.5860    1.0197    0.1075 H         1 <0>         0.1261
     30 H6         -0.0318    4.4277   -0.1176 H         1 <0>         0.1350
     31 H7          1.8487    4.9104    0.6683 H         1 <0>         0.0523
     32 H8          3.3428    4.7760   -0.2897 H         1 <0>         0.0978
     33 H9          1.7642    4.8515   -1.1086 H         1 <0>         0.0610
     34 H10        -3.4309    3.2410    0.5993 H         1 <0>         0.1030
     35 H11        -2.3655    4.6634    0.5008 H         1 <0>         0.1018
     36 H12        -4.6877    5.0988   -0.8524 H         1 <0>         0.4017
     37 H13        -2.5269    5.1141   -3.6327 H         1 <0>         0.1311
     38 H14        -5.5648    5.9830   -6.5302 H         1 <0>         0.1400
     39 H15        -6.6375    5.1330   -2.4674 H         1 <0>         0.1211
     40 O6         -8.0405    6.0693   -6.1353 O.co2     1 <0>        -0.7533
     41 O7         -3.2501    6.0371   -7.4957 O.co2     1 <0>        -0.7565
@<TRIPOS>BOND
     1    1    2 1
     2    1   25 1
     3    1   26 1
     4    1   27 1
     5    2    3 1
     6    3    8 ar
     7    3    4 ar
     8    4    5 ar
     9    4   28 1
    10    5    6 ar
    11    5   29 1
    12    6    7 ar
    13    6   11 1
    14    7    8 ar
    15    7   30 1
    16    8    9 1
    17    9   10 1
    18   10   31 1
    19   10   32 1
    20   10   33 1
    21   11   12 1
    22   11   34 1
    23   11   35 1
    24   12   13 2
    25   12   14 am
    26   14   15 1
    27   14   36 1
    28   15   20 ar
    29   15   16 ar
    30   16   17 ar
    31   16   37 1
    32   17   18 ar
    33   17   23 1
    34   18   19 ar
    35   18   38 1
    36   19   20 ar
    37   19   21 1
    38   20   39 1
    39   21   22 2
    40   21   40 1
    41   23   24 2
    42   23   41 1
@<TRIPOS>MOLECULE
ZINC19801140
   17    17     0     0     0
SMALL
USER_CHARGES
3-bromo-2,4-dihydroxy-5-nitro-benzoic acid
@<TRIPOS>ATOM
      1 C1          3.0780    2.4013   -1.2340 C.ar      1 <0>         0.0777
      2 C2          3.7363    2.6939   -0.0346 C.ar      1 <0>        -0.2691
      3 C3          3.1174    2.3963    1.1896 C.ar      1 <0>         0.2972
      4 C4          1.8575    1.8201    1.1976 C.ar      1 <0>        -0.3380
      5 C5          1.2212    1.5317   -0.0014 C.ar      1 <0>         0.3557
      6 C6          1.8388    1.8286   -1.2127 C.ar      1 <0>        -0.2244
      7 N1          1.1479    1.5221   -2.4854 N.pl3     1 <0>         0.0776
      8 O1          1.6851    1.7805   -3.5475 O.2       1 <0>        -0.2689
      9 O2          0.0421    1.0116   -2.4705 O.3       1 <0>        -0.1804
     10 O3         -0.0110    0.9628    0.0073 O.3       1 <0>        -0.6352
     11 Br1         1.0091    1.4211    2.8398 Br        1 <0>        -0.0788
     12 O4          3.7468    2.6764    2.3582 O.3       1 <0>        -0.4562
     13 C7          5.0717    3.3116   -0.0564 C.2       1 <0>         0.5127
     14 O5          5.6413    3.5648    0.9871 O.co2     1 <0>        -0.6322
     15 O6          5.6633    3.5967   -1.2335 O.co2     1 <0>        -0.7790
     16 H1          3.5509    2.6284   -2.1780 H         1 <0>         0.1440
     17 H2          3.2588    2.4418    3.3157 H         1 <0>         0.3973
@<TRIPOS>BOND
     1    1    6 ar
     2    1    2 ar
     3    1   16 1
     4    2    3 ar
     5    2   13 1
     6    3    4 ar
     7    3   12 1
     8    4    5 ar
     9    4   11 1
    10    5    6 ar
    11    5   10 1
    12    6    7 1
    13    7    8 2
    14    7    9 1
    15   12   17 1
    16   13   14 2
    17   13   15 1
@<TRIPOS>MOLECULE
ZINC13447527
   42    43     0     0     0
SMALL
USER_CHARGES

@<TRIPOS>ATOM
      1 C1         -0.0184    1.5028    0.0103 C.3       1 <0>        -0.0908
      2 C2          0.0021   -0.0041    0.0020 C.ar      1 <0>         0.1573
      3 N1          0.0058   -0.6672   -1.1444 N.ar      1 <0>        -0.5843
      4 C3          0.0242   -1.9922   -1.1637 C.ar      1 <0>         0.3029
      5 N2          0.0395   -2.7033   -0.0452 N.ar      1 <0>        -0.6244
      6 C4          0.0368   -2.1025    1.1382 C.ar      1 <0>         0.4447
      7 O1          0.0525   -2.8329    2.2795 O.3       1 <0>        -0.6935
      8 C5          0.0229   -0.7090    1.1907 C.ar      1 <0>        -0.2707
      9 C6          0.0257    0.0120    2.5140 C.3       1 <0>        -0.0159
     10 C7         -1.4157    0.2364    2.9755 C.3       1 <0>        -0.1653
     11 C8         -1.4130    0.9575    4.2988 C.2       1 <0>         0.4943
     12 O2         -0.3562    1.2636    4.8241 O.co2     1 <0>        -0.7031
     13 O3         -2.4676    1.2348    4.8441 O.co2     1 <0>        -0.7220
     14 S1          0.0278   -2.8292   -2.7143 S.3       1 <0>         0.0050
     15 C9          0.0546   -4.5863   -2.2644 C.3       1 <0>        -0.1374
     16 C10         0.0598   -5.4253   -3.5163 C.2       1 <0>         0.5379
     17 O4          0.0467   -4.8905   -4.6048 O.2       1 <0>        -0.5262
     18 N3          0.0790   -6.7699   -3.4263 N.am      1 <0>        -0.7264
     19 C11         0.0840   -7.5855   -4.6432 C.3       1 <0>         0.1417
     20 C12        -1.3631   -7.8544   -5.1052 C.3       1 <0>        -0.1372
     21 C13        -1.3266   -9.3065   -5.6429 C.3       1 <0>        -0.1237
     22 C14        -0.3696  -10.0141   -4.6516 C.3       1 <0>        -0.1239
     23 C15         0.7157   -8.9587   -4.3549 C.3       1 <0>        -0.1323
     24 H1          1.0042    1.8801    0.0026 H         1 <0>         0.0634
     25 H2         -0.5455    1.8639   -0.8728 H         1 <0>         0.0610
     26 H3         -0.5286    1.8543    0.9071 H         1 <0>         0.0747
     27 H4          0.5547   -0.5885    3.2539 H         1 <0>         0.0638
     28 H5          0.5254    0.9743    2.4024 H         1 <0>         0.0480
     29 H6         -1.9448    0.8370    2.2355 H         1 <0>         0.0446
     30 H7         -1.9155   -0.7258    3.0871 H         1 <0>         0.0544
     31 H8          0.9507   -4.7984   -1.6812 H         1 <0>         0.1172
     32 H9         -0.8291   -4.8232   -1.6719 H         1 <0>         0.1176
     33 H10         0.0895   -7.1976   -2.5557 H         1 <0>         0.4028
     34 H11         0.6398   -7.0769   -5.4310 H         1 <0>         0.0910
     35 H12        -2.0526   -7.7761   -4.2646 H         1 <0>         0.0720
     36 H13        -1.6456   -7.1612   -5.8975 H         1 <0>         0.0714
     37 H14        -2.3190   -9.7560   -5.6092 H         1 <0>         0.0664
     38 H15        -0.9232   -9.3335   -6.6552 H         1 <0>         0.0670
     39 H16        -0.8987  -10.2846   -3.7378 H         1 <0>         0.0672
     40 H17         0.0729  -10.8970   -5.1129 H         1 <0>         0.0650
     41 H18         1.5775   -9.1168   -5.0032 H         1 <0>         0.0729
     42 H19         1.0185   -9.0183   -3.3095 H         1 <0>         0.0730
@<TRIPOS>BOND
     1    1    2 1
     2    1   24 1
     3    1   25 1
     4    1   26 1
     5    2    8 ar
     6    2    3 ar
     7    3    4 ar
     8    4    5 ar
     9    4   14 1
    10    5    6 ar
    11    6    7 1
    12    6    8 ar
    13    8    9 1
    14    9   10 1
    15    9   27 1
    16    9   28 1
    17   10   11 1
    18   10   29 1
    19   10   30 1
    20   11   12 2
    21   11   13 1
    22   14   15 1
    23   15   16 1
    24   15   31 1
    25   15   32 1
    26   16   17 2
    27   16   18 am
    28   18   19 1
    29   18   33 1
    30   19   23 1
    31   19   20 1
    32   19   34 1
    33   20   21 1
    34   20   35 1
    35   20   36 1
    36   21   22 1
    37   21   37 1
    38   21   38 1
    39   22   23 1
    40   22   39 1
    41   22   40 1
    42   23   41 1
    43   23   42 1
@<TRIPOS>MOLECULE
ZINC55124387
   28    30     0     0     0
SMALL
USER_CHARGES

@<TRIPOS>ATOM
      1 C1         -0.0184    1.5028    0.0103 C.3       1 <0>        -0.0969
      2 C2          0.0021   -0.0041    0.0020 C.ar      1 <0>        -0.1078
      3 C3          0.0058   -0.6882   -1.2033 C.ar      1 <0>        -0.1608
      4 C4          0.0248   -2.0679   -1.2287 C.ar      1 <0>        -0.0942
      5 C5          0.0401   -2.7846   -0.0386 C.ar      1 <0>         0.0683
      6 C6          0.0364   -2.0904    1.1812 C.ar      1 <0>         0.0170
      7 C7          0.0228   -0.6978    1.1939 C.ar      1 <0>        -0.1253
      8 C8          0.0553   -3.1186    2.2388 C.2       1 <0>        -0.3878
      9 C9          0.0584   -2.9020    3.6328 C.2       1 <0>         0.3515
     10 C10         1.2469   -2.7416    4.5150 C.2       1 <0>         0.4253
     11 O1          2.5448   -2.7744    4.1436 O.3       1 <0>        -0.5437
     12 N1          0.7769   -2.5619    5.7265 N.2       1 <0>        -0.6566
     13 C11        -0.5653   -2.5940    5.6865 C.2       1 <0>         0.4732
     14 S1         -1.5838   -2.4005    7.0488 S.2       1 <0>        -0.6247
     15 N2         -0.9998   -2.7929    4.4311 N.2       1 <0>        -0.5320
     16 C12         0.0690   -4.3555    1.5771 C.2       1 <0>         0.4821
     17 O2          0.0882   -5.5632    2.1767 O.3       1 <0>        -0.6946
     18 N3          0.0599   -4.1425    0.2400 N.pl3     1 <0>        -0.6224
     19 C13         0.0286   -2.7973   -2.5474 C.3       1 <0>        -0.0988
     20 H1          1.0042    1.8801    0.0026 H         1 <0>         0.0555
     21 H2         -0.5455    1.8639   -0.8728 H         1 <0>         0.0522
     22 H3         -0.5286    1.8543    0.9071 H         1 <0>         0.0558
     23 H4         -0.0068   -0.1363   -2.1316 H         1 <0>         0.1038
     24 H5          0.0241   -0.1637    2.1326 H         1 <0>         0.1030
     25 H6          0.0660   -4.8434   -0.4306 H         1 <0>         0.3932
     26 H7          1.0571   -2.9588   -2.8704 H         1 <0>         0.0567
     27 H8         -0.4713   -3.7590   -2.4322 H         1 <0>         0.0517
     28 H9         -0.4972   -2.2015   -3.2936 H         1 <0>         0.0563
@<TRIPOS>BOND
     1    1    2 1
     2    1   20 1
     3    1   21 1
     4    1   22 1
     5    2    7 ar
     6    2    3 ar
     7    3    4 ar
     8    3   23 1
     9    4    5 ar
    10    4   19 1
    11    5   18 1
    12    5    6 ar
    13    6    7 ar
    14    6    8 1
    15    7   24 1
    16    8    9 1
    17    8   16 2
    18    9   15 2
    19    9   10 1
    20   10   11 1
    21   10   12 2
    22   12   13 1
    23   13   14 2
    24   13   15 1
    25   16   17 1
    26   16   18 1
    27   18   25 1
    28   19   26 1
    29   19   27 1
    30   19   28 1
@<TRIPOS>MOLECULE
ZINC40475580
   30    33     0     0     0
SMALL
USER_CHARGES

@<TRIPOS>ATOM
      1 C1          1.1526   -0.5834    0.5045 C.ar      1 <0>        -0.0106
      2 C2          2.3415    0.1202    0.4973 C.ar      1 <0>        -0.1415
      3 C3          2.3803    1.4090   -0.0147 C.ar      1 <0>         0.0892
      4 C4          1.2246    1.9880   -0.5183 C.ar      1 <0>        -0.1560
      5 C5          0.0382    1.2802   -0.5088 C.ar      1 <0>        -0.1044
      6 C6          0.0021   -0.0041    0.0020 C.ar      1 <0>        -0.0510
      7 C7         -1.2934   -0.7740    0.0107 C.3       1 <0>         0.0765
      8 H1         -2.1118   -0.0614    0.1129 H         1 <0>         0.0765
      9 C8         -1.2988   -1.6620    1.1985 C.2       1 <0>        -0.2611
     10 C9         -1.6260   -2.9806    1.2759 C.2       1 <0>         0.1060
     11 N1         -1.5766   -3.4975    2.5067 N.2       1 <0>        -0.5565
     12 C10        -1.2060   -2.7839    3.5469 C.2       1 <0>         0.2800
     13 S1         -1.0745   -3.2887    5.2299 S.3       1 <0>        -0.7656
     14 S2         -0.8872   -1.2706    2.8805 S.3       1 <0>         0.0359
     15 S3         -2.0527   -3.9040   -0.1765 S.3       1 <0>        -0.0467
     16 C11        -2.4269   -2.6206   -1.4132 C.3       1 <0>        -0.1578
     17 H2         -3.4752   -2.3221   -1.4224 H         1 <0>         0.1139
     18 C12        -1.4348   -1.4597   -1.2940 C.3       1 <0>        -0.1276
     19 H3         -1.8355   -0.7030   -1.9686 H         1 <0>         0.0805
     20 C13        -0.2170   -1.9566   -2.0045 C.2       1 <0>         0.4921
     21 O1          1.0429   -1.5302   -1.8289 O.3       1 <0>        -0.6091
     22 N2         -0.6204   -2.8930   -2.8351 N.2       1 <0>        -0.6917
     23 C14        -1.9273   -3.1906   -2.7546 C.2       1 <0>         0.5346
     24 O2         -2.5856   -3.7983   -3.5739 O.2       1 <0>        -0.5360
     25 O3          3.5486    2.1033   -0.0225 O.3       1 <0>        -0.5073
     26 H4          1.1228   -1.5883    0.8988 H         1 <0>         0.1163
     27 H5          3.2398   -0.3326    0.8902 H         1 <0>         0.1156
     28 H6          1.2522    2.9913   -0.9171 H         1 <0>         0.1137
     29 H7         -0.8618    1.7305   -0.9008 H         1 <0>         0.1131
     30 H8          4.0737    1.9806   -0.8252 H         1 <0>         0.3791
@<TRIPOS>BOND
     1    1    6 ar
     2    1    2 ar
     3    1   26 1
     4    2    3 ar
     5    2   27 1
     6    3    4 ar
     7    3   25 1
     8    4    5 ar
     9    4   28 1
    10    5    6 ar
    11    5   29 1
    12    6    7 1
    13    7    8 1
    14    7   18 1
    15    7    9 1
    16    9   14 1
    17    9   10 2
    18   10   11 1
    19   10   15 1
    20   11   12 2
    21   12   13 1
    22   12   14 1
    23   15   16 1
    24   16   17 1
    25   16   23 1
    26   16   18 1
    27   18   19 1
    28   18   20 1
    29   20   21 1
    30   20   22 2
    31   22   23 1
    32   23   24 2
    33   25   30 1
@<TRIPOS>MOLECULE
ZINC01828719
   39    40     0     0     0
SMALL
USER_CHARGES
3-[5-(2-carboxyvinyl)-2-methoxy-phenyl]sulfonylaminobenzoic acid
@<TRIPOS>ATOM
      1 C1          1.1705    3.1141    2.9456 C.3       1 <0>         0.0195
      2 O1          1.1028    1.8084    2.3689 O.3       1 <0>        -0.2918
      3 C2          0.6311    0.8099    3.1580 C.ar      1 <0>         0.2202
      4 C3          0.2404    1.0848    4.4639 C.ar      1 <0>        -0.2219
      5 C4         -0.2391    0.0760    5.2681 C.ar      1 <0>        -0.0207
      6 C5         -0.3331   -1.2288    4.7692 C.ar      1 <0>        -0.0993
      7 C6          0.0563   -1.4991    3.4521 C.ar      1 <0>         0.0185
      8 C7          0.5398   -0.4839    2.6578 C.ar      1 <0>        -0.7071
      9 S1          1.0369   -0.8236    1.0019 S.o2      1 <0>         2.7032
     10 O2          0.8019   -2.2079    0.7832 O.2       1 <0>        -0.9651
     11 O3          2.3181   -0.2325    0.8331 O.2       1 <0>        -0.9475
     12 N1          0.0021   -0.0041    0.0020 N.pl3     1 <0>        -1.0513
     13 C8         -0.0169    1.3929    0.0097 C.ar      1 <0>         0.1251
     14 C9          1.1775    2.1044    0.0021 C.ar      1 <0>        -0.1126
     15 C10         1.1643    3.4865    0.0097 C.ar      1 <0>        -0.1325
     16 C11        -0.0346    4.1699    0.0244 C.ar      1 <0>        -0.0858
     17 C12        -1.2399    3.4650    0.0321 C.ar      1 <0>        -0.1046
     18 C13        -1.2267    2.0697    0.0191 C.ar      1 <0>        -0.0912
     19 C14        -2.5249    4.1941    0.0474 C.2       1 <0>         0.4904
     20 O4         -3.5722    3.5788    0.0541 O.co2     1 <0>        -0.6309
     21 C15        -0.8443   -2.3098    5.6235 C.2       1 <0>        -0.0995
     22 C16        -1.2245   -2.0454    6.8925 C.2       1 <0>        -0.1565
     23 C17        -1.7177   -3.0883    7.7167 C.2       1 <0>         0.4732
     24 O5         -1.7985   -4.2212    7.2811 O.co2     1 <0>        -0.6390
     25 H1          0.1724    3.4287    3.2507 H         1 <0>         0.0625
     26 H2          1.8268    3.0935    3.8156 H         1 <0>         0.0552
     27 H3          1.5637    3.8161    2.2103 H         1 <0>         0.1104
     28 H4          0.3130    2.0917    4.8477 H         1 <0>         0.1371
     29 H5         -0.5419    0.2905    6.2824 H         1 <0>         0.1379
     30 H6         -0.0188   -2.5030    3.0610 H         1 <0>         0.1495
     31 H7         -0.5909   -0.4939   -0.5890 H         1 <0>         0.4223
     32 H8          2.1190    1.5753   -0.0101 H         1 <0>         0.1485
     33 H9          2.0955    4.0335    0.0038 H         1 <0>         0.1196
     34 H10        -0.0405    5.2498    0.0296 H         1 <0>         0.1283
     35 H11        -2.1557    1.5189    0.0205 H         1 <0>         0.1279
     36 H12        -0.9160   -3.3156    5.2367 H         1 <0>         0.1312
     37 H13        -1.1528   -1.0396    7.2793 H         1 <0>         0.1049
     38 O6         -2.5350    5.5411    0.0539 O.co2     1 <0>        -0.7580
     39 O7         -2.0974   -2.8242    8.9843 O.co2     1 <0>        -0.7699
@<TRIPOS>BOND
     1    1    2 1
     2    1   25 1
     3    1   26 1
     4    1   27 1
     5    2    3 1
     6    3    8 ar
     7    3    4 ar
     8    4    5 ar
     9    4   28 1
    10    5    6 ar
    11    5   29 1
    12    6    7 ar
    13    6   21 1
    14    7    8 ar
    15    7   30 1
    16    8    9 1
    17    9   10 2
    18    9   11 2
    19    9   12 1
    20   12   13 1
    21   12   31 1
    22   13   18 ar
    23   13   14 ar
    24   14   15 ar
    25   14   32 1
    26   15   16 ar
    27   15   33 1
    28   16   17 ar
    29   16   34 1
    30   17   18 ar
    31   17   19 1
    32   18   35 1
    33   19   20 2
    34   19   38 1
    35   21   22 2
    36   21   36 1
    37   22   23 1
    38   22   37 1
    39   23   24 2
    40   23   39 1
@<TRIPOS>MOLECULE
ZINC13392380
   40    42     0     0     0
SMALL
USER_CHARGES
2-[(5-methoxy2,3-dihydro-1,4-benzodioxine-7-carbonyl)amino]terephthalic acid
@<TRIPOS>ATOM
      1 C1         -3.4503   -4.8937    0.2667 C.3       1 <0>         0.0193
      2 O1         -4.7248   -4.2578    0.3818 O.3       1 <0>        -0.3072
      3 C2         -4.7393   -2.8979    0.3731 C.ar      1 <0>         0.1308
      4 C3         -3.5548   -2.1969    0.2508 C.ar      1 <0>        -0.1649
      5 C4         -3.5695   -0.8000    0.2477 C.ar      1 <0>        -0.0712
      6 C5         -4.7833   -0.1176    0.3576 C.ar      1 <0>        -0.0887
      7 C6         -5.9673   -0.8240    0.4749 C.ar      1 <0>         0.0728
      8 C7         -5.9496   -2.2150    0.4818 C.ar      1 <0>         0.0318
      9 O2         -7.1052   -2.9246    0.5922 O.3       1 <0>        -0.2945
     10 C8         -8.2519   -2.2167    1.0755 C.3       1 <0>         0.0190
     11 C9         -8.3405   -0.8791    0.3283 C.3       1 <0>         0.0195
     12 O3         -7.1405   -0.1420    0.5856 O.3       1 <0>        -0.2995
     13 C10        -2.3064   -0.0472    0.1224 C.2       1 <0>         0.5428
     14 O4         -2.3215    1.1685    0.1148 O.2       1 <0>        -0.5189
     15 N1         -1.1362   -0.7074    0.0164 N.am      1 <0>        -0.6326
     16 C11         0.0623    0.0002   -0.0087 C.ar      1 <0>         0.1453
     17 C12         0.1277    1.2363   -0.6362 C.ar      1 <0>        -0.0990
     18 C13         1.3287    1.9412   -0.6586 C.ar      1 <0>        -0.1053
     19 C14         2.4675    1.4058   -0.0503 C.ar      1 <0>        -0.1072
     20 C15         2.4079    0.1803    0.5733 C.ar      1 <0>        -0.0822
     21 C16         1.2074   -0.5339    0.6007 C.ar      1 <0>        -0.1491
     22 C17         1.1440   -1.8477    1.2700 C.2       1 <0>         0.5059
     23 O5          0.1255   -2.5078    1.2172 O.co2     1 <0>        -0.6468
     24 C18         1.3991    3.2592   -1.3274 C.2       1 <0>         0.4969
     25 O6          0.4103    3.7254   -1.8562 O.co2     1 <0>        -0.6340
     26 H1         -2.9822   -4.6019   -0.6734 H         1 <0>         0.0594
     27 H2         -2.8156   -4.5887    1.0987 H         1 <0>         0.0693
     28 H3         -3.5809   -5.9757    0.2870 H         1 <0>         0.0995
     29 H4         -2.6187   -2.7282    0.1620 H         1 <0>         0.1541
     30 H5         -4.7976    0.9623    0.3514 H         1 <0>         0.1524
     31 H6         -8.1473   -2.0341    2.1450 H         1 <0>         0.0756
     32 H7         -9.1516   -2.8028    0.8883 H         1 <0>         0.1186
     33 H8         -9.2022   -0.3150    0.6852 H         1 <0>         0.1195
     34 H9         -8.4375   -1.0616   -0.7419 H         1 <0>         0.0770
     35 H10        -1.1291   -1.6756   -0.0424 H         1 <0>         0.4188
     36 H11        -0.7505    1.6491   -1.1104 H         1 <0>         0.1405
     37 H12         3.3970    1.9555   -0.0694 H         1 <0>         0.1256
     38 H13         3.2903   -0.2299    1.0417 H         1 <0>         0.1275
     39 O7          2.2157   -2.3151    1.9396 O.co2     1 <0>        -0.7553
     40 O8          2.5600    3.9418   -1.3498 O.co2     1 <0>        -0.7656
@<TRIPOS>BOND
     1    1    2 1
     2    1   26 1
     3    1   27 1
     4    1   28 1
     5    2    3 1
     6    3    8 ar
     7    3    4 ar
     8    4    5 ar
     9    4   29 1
    10    5    6 ar
    11    5   13 1
    12    6    7 ar
    13    6   30 1
    14    7   12 1
    15    7    8 ar
    16    8    9 1
    17    9   10 1
    18   10   11 1
    19   10   31 1
    20   10   32 1
    21   11   12 1
    22   11   33 1
    23   11   34 1
    24   13   14 2
    25   13   15 am
    26   15   16 1
    27   15   35 1
    28   16   21 ar
    29   16   17 ar
    30   17   18 ar
    31   17   36 1
    32   18   19 ar
    33   18   24 1
    34   19   20 ar
    35   19   37 1
    36   20   21 ar
    37   20   38 1
    38   21   22 1
    39   22   23 2
    40   22   39 1
    41   24   25 2
    42   24   40 1
@<TRIPOS>MOLECULE
ZINC18180696
   44    47     0     0     0
SMALL
USER_CHARGES
(5S)-5-(3-ethoxy-4-hydroxy-phenyl)-1,5,7,8,9,10-hexahydropyrimido[4,5-b]quinoline-2,4,6-trione
@<TRIPOS>ATOM
      1 C1          1.2143    9.0284   -4.8188 C.3       1 <0>        -0.1447
      2 C2          0.8422    8.1462   -3.6255 C.3       1 <0>         0.0483
      3 O1          2.0085    7.8899   -2.8405 O.3       1 <0>        -0.3164
      4 C3          1.8501    7.1149   -1.7343 C.ar      1 <0>         0.0796
      5 C4          0.6008    6.6076   -1.4149 C.ar      1 <0>        -0.1400
      6 C5          0.4406    5.8243   -0.2871 C.ar      1 <0>        -0.0037
      7 C6          1.5267    5.5365    0.5184 C.ar      1 <0>        -0.1048
      8 C7          2.7769    6.0347    0.2023 C.ar      1 <0>        -0.1867
      9 C8          2.9434    6.8248   -0.9238 C.ar      1 <0>         0.0861
     10 O2          4.1725    7.3160   -1.2359 O.3       1 <0>        -0.5092
     11 C9         -0.9199    5.2778    0.0616 C.3       1 <0>         0.1253
     12 H1         -1.6665    5.5897   -0.6835 H         1 <0>         0.0540
     13 C10        -1.3385    5.8182    1.3971 C.ar      1 <0>        -0.4450
     14 C11        -1.2630    5.0485    2.5185 C.ar      1 <0>         0.3981
     15 N1         -1.6428    5.5749    3.7296 N.ar      1 <0>        -0.7522
     16 C12        -2.0906    6.8415    3.8096 C.ar      1 <0>         0.6237
     17 O3         -2.4220    7.2927    4.8889 O.3       1 <0>        -0.6850
     18 N2         -2.1774    7.6155    2.7126 N.ar      1 <0>        -0.7772
     19 C13        -1.8136    7.1381    1.5061 C.ar      1 <0>         0.5295
     20 O4         -1.8955    7.8446    0.5162 O.3       1 <0>        -0.6742
     21 N3         -0.8100    3.7557    2.4377 N.pl3     1 <0>        -0.6238
     22 C14        -0.8048    3.0911    1.2408 C.2       1 <0>         0.2406
     23 C15        -0.8581    3.7716    0.0765 C.2       1 <0>        -0.3225
     24 C16        -0.8522    3.0975   -1.1576 C.2       1 <0>         0.3989
     25 O5         -0.9206    3.7387   -2.1875 O.2       1 <0>        -0.5018
     26 C17        -0.7622    1.5976   -1.2267 C.3       1 <0>        -0.1665
     27 C18        -0.0127    1.0858    0.0080 C.3       1 <0>        -0.1052
     28 C19        -0.7375    1.5836    1.2606 C.3       1 <0>        -0.0933
     29 H2          0.3165    9.2256   -5.4230 H         1 <0>         0.0718
     30 H3          1.9654    8.5132   -5.4355 H         1 <0>         0.0585
     31 H4          1.6285    9.9806   -4.4558 H         1 <0>         0.0613
     32 H5          0.0911    8.6614   -3.0088 H         1 <0>         0.0656
     33 H6          0.4280    7.1940   -3.9885 H         1 <0>         0.0588
     34 H7         -0.2485    6.8276   -2.0447 H         1 <0>         0.1272
     35 H8          1.3983    4.9208    1.3963 H         1 <0>         0.1135
     36 H9          3.6237    5.8083    0.8332 H         1 <0>         0.1167
     37 H10         5.0359    7.0859   -0.5943 H         1 <0>         0.4086
     38 H11        -0.4462    3.2430    3.3403 H         1 <0>         0.4093
     39 H12        -1.7755    1.1701   -1.2493 H         1 <0>         0.0873
     40 H13        -0.2201    1.3044   -2.1378 H         1 <0>         0.0813
     41 H14         0.0037   -0.0140   -0.0028 H         1 <0>         0.0698
     42 H15         1.0187    1.4680   -0.0045 H         1 <0>         0.0709
     43 H16        -0.1901    1.2528    2.1555 H         1 <0>         0.0793
     44 H17        -1.7571    1.1713    1.2812 H         1 <0>         0.0884
@<TRIPOS>BOND
     1    1    2 1
     2    1   29 1
     3    1   30 1
     4    1   31 1
     5    2    3 1
     6    2   32 1
     7    2   33 1
     8    3    4 1
     9    4    9 ar
    10    4    5 ar
    11    5    6 ar
    12    5   34 1
    13    6    7 ar
    14    6   11 1
    15    7    8 ar
    16    7   35 1
    17    8    9 ar
    18    8   36 1
    19    9   10 1
    20   10   37 1
    21   11   12 1
    22   11   23 1
    23   11   13 1
    24   13   19 ar
    25   13   14 ar
    26   14   15 ar
    27   14   21 1
    28   15   16 ar
    29   16   17 1
    30   16   18 ar
    31   18   19 ar
    32   19   20 1
    33   21   22 1
    34   21   38 1
    35   22   28 1
    36   22   23 2
    37   23   24 1
    38   24   25 2
    39   24   26 1
    40   26   27 1
    41   26   39 1
    42   26   40 1
    43   27   28 1
    44   27   41 1
    45   27   42 1
    46   28   43 1
    47   28   44 1
@<TRIPOS>MOLECULE
ZINC40313256
   42    45     0     0     0
SMALL
USER_CHARGES

@<TRIPOS>ATOM
      1 C1         -0.0167    1.3786    0.0096 C.ar      1 <0>        -0.1295
      2 C2          1.1696    2.0891    0.0021 C.ar      1 <0>        -0.1006
      3 C3          2.3774    1.4191   -0.0134 C.ar      1 <0>        -0.1186
      4 C4          2.3995    0.0308   -0.0211 C.ar      1 <0>         0.1422
      5 C5          1.2066   -0.6797   -0.0130 C.ar      1 <0>        -0.1257
      6 C6          0.0021   -0.0041    0.0020 C.ar      1 <0>        -0.1046
      7 N1          3.6231   -0.6517   -0.0373 N.pl3     1 <0>        -0.3821
      8 C7          4.6371   -0.3956   -0.8929 C.2       1 <0>         0.0119
      9 C8          5.6803   -1.2612   -0.6120 C.2       1 <0>        -0.1590
     10 C9          5.2214   -2.0856    0.5047 C.2       1 <0>         0.0702
     11 C10         3.9587   -1.6589    0.8078 C.2       1 <0>        -0.0421
     12 C11         3.1650   -2.2957    1.9228 C.3       1 <0>         0.0395
     13 H1          2.1020   -2.2644    1.6836 H         1 <0>         0.0928
     14 C12         3.6249   -3.7517    2.0534 C.3       1 <0>        -0.0823
     15 C13         5.1165   -3.8723    1.9426 C.2       1 <0>         0.3103
     16 N2          5.8366   -3.0953    1.1936 N.2       1 <0>        -0.4737
     17 O1          5.7369   -4.8408    2.6495 O.3       1 <0>        -0.4776
     18 C14         3.4192   -1.5613    3.2139 C.ar      1 <0>        -0.0925
     19 C15         4.7050   -1.4819    3.7193 C.ar      1 <0>        -0.1190
     20 C16         4.9451   -0.8119    4.9007 C.ar      1 <0>        -0.0827
     21 C17         3.8863   -0.2120    5.5872 C.ar      1 <0>        -0.1345
     22 C18         2.5908   -0.2958    5.0706 C.ar      1 <0>        -0.0896
     23 C19         2.3666   -0.9647    3.8855 C.ar      1 <0>        -0.1294
     24 C20         4.1351    0.5062    6.8517 C.2       1 <0>         0.5221
     25 O2          5.2701    0.5774    7.3014 O.co2     1 <0>        -0.6888
     26 O3          3.2062    1.0302    7.4502 O.co2     1 <0>        -0.6943
     27 C21         6.9762   -1.3356   -1.2928 C.2       1 <0>         0.5475
     28 O4          7.2252   -0.5756   -2.2197 O.co2     1 <0>        -0.7088
     29 O5          7.8095   -2.1577   -0.9346 O.co2     1 <0>        -0.6743
     30 H2         -0.9598    1.9047    0.0260 H         1 <0>         0.1229
     31 H3          1.1518    3.1689    0.0080 H         1 <0>         0.1274
     32 H4          3.3036    1.9746   -0.0200 H         1 <0>         0.1309
     33 H5          1.2206   -1.7596   -0.0193 H         1 <0>         0.1272
     34 H6         -0.9261   -0.5562    0.0082 H         1 <0>         0.1261
     35 H7          4.6341    0.3581   -1.6664 H         1 <0>         0.1707
     36 H8          3.3075   -4.1396    3.0213 H         1 <0>         0.0993
     37 H9          3.1606   -4.3436    1.2646 H         1 <0>         0.0923
     38 H10         6.6964   -4.8609    2.5311 H         1 <0>         0.4026
     39 H11         5.5224   -1.9461    3.1876 H         1 <0>         0.1192
     40 H12         5.9490   -0.7513    5.2943 H         1 <0>         0.1237
     41 H13         1.7677    0.1656    5.5960 H         1 <0>         0.1222
     42 H14         1.3664   -1.0266    3.4828 H         1 <0>         0.1088
@<TRIPOS>BOND
     1    1    6 ar
     2    1    2 ar
     3    1   30 1
     4    2    3 ar
     5    2   31 1
     6    3    4 ar
     7    3   32 1
     8    4    5 ar
     9    4    7 1
    10    5    6 ar
    11    5   33 1
    12    6   34 1
    13    7   11 1
    14    7    8 1
    15    8    9 2
    16    8   35 1
    17    9   10 1
    18    9   27 1
    19   10   16 1
    20   10   11 2
    21   11   12 1
    22   12   13 1
    23   12   14 1
    24   12   18 1
    25   14   15 1
    26   14   36 1
    27   14   37 1
    28   15   16 2
    29   15   17 1
    30   17   38 1
    31   18   23 ar
    32   18   19 ar
    33   19   20 ar
    34   19   39 1
    35   20   21 ar
    36   20   40 1
    37   21   22 ar
    38   21   24 1
    39   22   23 ar
    40   22   41 1
    41   23   42 1
    42   24   25 2
    43   24   26 1
    44   27   28 2
    45   27   29 1
@<TRIPOS>MOLECULE
ZINC60934580
   32    33     0     0     0
SMALL
USER_CHARGES

@<TRIPOS>ATOM
      1 C1         -0.0944    1.1526    0.0645 C.ar      1 <0>        -0.0371
      2 C2          1.0093    1.9346   -0.2023 C.ar      1 <0>        -0.1556
      3 C3          2.2762    1.3744   -0.1983 C.ar      1 <0>         0.0544
      4 C4          2.4433    0.0260    0.0739 C.ar      1 <0>        -0.6326
      5 C5          1.3484   -0.7669    0.3423 C.ar      1 <0>         0.0154
      6 C6          0.0672   -0.2079    0.3398 C.ar      1 <0>        -0.1580
      7 C7         -1.1088   -1.0502    0.6266 C.2       1 <0>         0.5260
      8 O1         -2.2286   -0.5583    0.6238 O.co2     1 <0>        -0.6918
      9 O2         -0.9644   -2.2405    0.8672 O.co2     1 <0>        -0.6808
     10 S1          4.0592   -0.6766    0.0764 S.o2      1 <0>         2.6142
     11 O3          4.8709    0.1747    0.8737 O.2       1 <0>        -1.0205
     12 O4          3.9000   -2.0602    0.3581 O.2       1 <0>        -1.0279
     13 N1          4.6408   -0.5724   -1.4706 N.2       1 <0>        -1.0766
     14 C8          5.9188   -1.0580   -1.7721 C.ar      1 <0>         0.2557
     15 C9          6.6965   -1.6323   -0.7751 C.ar      1 <0>        -0.1737
     16 C10         7.9567   -2.1117   -1.0726 C.ar      1 <0>        -0.1319
     17 C11         8.4467   -2.0191   -2.3688 C.ar      1 <0>         0.1654
     18 C12         7.6693   -1.4450   -3.3655 C.ar      1 <0>        -0.0632
     19 C13         6.4064   -0.9706   -3.0691 C.ar      1 <0>        -0.1048
     20 N2          8.1917   -1.3459   -4.7467 N.pl3     1 <0>         0.0539
     21 O5          7.9424   -0.3725   -5.4190 O.2       1 <0>        -0.1749
     22 O6          8.8677   -2.2385   -5.2028 O.3       1 <0>        -0.2016
     23 N3          9.7249   -2.5044   -2.6702 N.pl3     1 <0>        -0.8827
     24 Cl1         3.6605    2.3658   -0.5364 Cl        1 <0>        -0.0553
     25 H1         -1.0812    1.5915    0.0651 H         1 <0>         0.1374
     26 H2          0.8858    2.9862   -0.4152 H         1 <0>         0.1291
     27 H3          1.4799   -1.8178    0.5536 H         1 <0>         0.1505
     28 H4          6.3157   -1.7037    0.2330 H         1 <0>         0.1159
     29 H5          8.5615   -2.5583   -0.2973 H         1 <0>         0.1250
     30 H6          5.8000   -0.5277   -3.8453 H         1 <0>         0.1369
     31 H7         10.2229   -3.0050   -2.0052 H         1 <0>         0.3938
     32 H8         10.1125   -2.3399   -3.5441 H         1 <0>         0.3957
@<TRIPOS>BOND
     1    1    6 ar
     2    1    2 ar
     3    1   25 1
     4    2    3 ar
     5    2   26 1
     6    3    4 ar
     7    3   24 1
     8    4    5 ar
     9    4   10 1
    10    5    6 ar
    11    5   27 1
    12    6    7 1
    13    7    8 2
    14    7    9 1
    15   10   11 2
    16   10   12 2
    17   10   13 1
    18   13   14 1
    19   14   19 ar
    20   14   15 ar
    21   15   16 ar
    22   15   28 1
    23   16   17 ar
    24   16   29 1
    25   17   18 ar
    26   17   23 1
    27   18   19 ar
    28   18   20 1
    29   19   30 1
    30   20   21 2
    31   20   22 1
    32   23   31 1
    33   23   32 1
@<TRIPOS>MOLECULE
ZINC40475585
   34    37     0     0     0
SMALL
USER_CHARGES

@<TRIPOS>ATOM
      1 C1         -3.6850   -4.4116    1.3500 C.3       1 <0>         0.0245
      2 O1         -2.4356   -3.8832    0.9006 O.3       1 <0>        -0.3123
      3 C2         -2.4313   -2.5956    0.4631 C.ar      1 <0>         0.0973
      4 C3         -3.6027   -1.8554    0.4718 C.ar      1 <0>        -0.1794
      5 C4         -3.5965   -0.5465    0.0272 C.ar      1 <0>        -0.0274
      6 C5         -2.4234    0.0270   -0.4272 C.ar      1 <0>        -0.1105
      7 C6         -1.2514   -0.7061   -0.4390 C.ar      1 <0>        -0.1086
      8 C7         -1.2494   -2.0166    0.0111 C.ar      1 <0>         0.0593
      9 O2         -0.0961   -2.7372    0.0059 O.3       1 <0>        -0.4897
     10 C8         -4.8714    0.2570    0.0374 C.3       1 <0>         0.0740
     11 H1         -4.6366    1.3177    0.1267 H         1 <0>         0.1002
     12 C9         -5.7295   -0.1701    1.1919 C.2       1 <0>        -0.2675
     13 C10        -6.8103   -1.0061    1.2103 C.2       1 <0>         0.1062
     14 N1         -7.3782   -1.1615    2.4046 N.2       1 <0>        -0.5541
     15 C11        -6.9088   -0.5654    3.4799 C.2       1 <0>         0.2791
     16 S1         -7.5165   -0.6516    5.1315 S.3       1 <0>        -0.7609
     17 S2         -5.5871    0.3002    2.8958 S.3       1 <0>         0.0330
     18 S3         -7.3671   -1.8168   -0.2818 S.3       1 <0>        -0.0529
     19 C12        -5.9410   -1.5128   -1.3566 C.3       1 <0>        -0.1727
     20 H2         -5.0854   -2.1271   -1.0764 H         1 <0>         0.1217
     21 C13        -5.6367    0.0117   -1.2371 C.3       1 <0>        -0.1274
     22 H3         -6.5790    0.5582   -1.1984 H         1 <0>         0.1011
     23 C14        -4.9931    0.2759   -2.5583 C.2       1 <0>         0.4916
     24 O3         -4.1125    1.2488   -2.8373 O.3       1 <0>        -0.6343
     25 N2         -5.4553   -0.6305   -3.3995 N.2       1 <0>        -0.6965
     26 C15        -6.2319   -1.5940   -2.8314 C.2       1 <0>         0.5405
     27 O4         -6.9999   -2.3520   -3.3880 O.2       1 <0>        -0.5226
     28 H4         -3.5484   -5.4444    1.6707 H         1 <0>         0.0971
     29 H5         -4.0511   -3.8167    2.1868 H         1 <0>         0.0566
     30 H6         -4.4083   -4.3766    0.5354 H         1 <0>         0.0561
     31 H7         -4.5205   -2.3012    0.8256 H         1 <0>         0.1324
     32 H8         -2.4227    1.0497   -0.7741 H         1 <0>         0.1375
     33 H9         -0.3365   -0.2559   -0.7948 H         1 <0>         0.1313
     34 H10         0.0601   -3.2235   -0.8153 H         1 <0>         0.3772
@<TRIPOS>BOND
     1    1    2 1
     2    1   28 1
     3    1   29 1
     4    1   30 1
     5    2    3 1
     6    3    8 ar
     7    3    4 ar
     8    4    5 ar
     9    4   31 1
    10    5    6 ar
    11    5   10 1
    12    6    7 ar
    13    6   32 1
    14    7    8 ar
    15    7   33 1
    16    8    9 1
    17    9   34 1
    18   10   11 1
    19   10   21 1
    20   10   12 1
    21   12   17 1
    22   12   13 2
    23   13   14 1
    24   13   18 1
    25   14   15 2
    26   15   16 1
    27   15   17 1
    28   18   19 1
    29   19   20 1
    30   19   26 1
    31   19   21 1
    32   21   22 1
    33   21   23 1
    34   23   24 1
    35   23   25 2
    36   25   26 1
    37   26   27 2
@<TRIPOS>MOLECULE
ZINC05600558
   24    25     0     0     0
SMALL
USER_CHARGES
3,5,8,10-tetraoxabicyclo[4.4.0]decane-2,7-dicarboxylic acid
@<TRIPOS>ATOM
      1 C1         -3.5906    3.3920    1.2146 C.3       1 <0>         0.2145
      2 O1         -2.8610    3.0404    0.0356 O.3       1 <0>        -0.3864
      3 C2         -1.5079    3.5030    0.0337 C.3       1 <0>         0.0461
      4 H1         -1.4933    4.5929    0.0399 H         1 <0>         0.0800
      5 C3         -0.7802    2.9708    1.2738 C.3       1 <0>         0.0604
      6 H2          0.2145    3.4127    1.3328 H         1 <0>         0.0838
      7 C4         -1.5847    3.3450    2.5225 C.3       1 <0>         0.0523
      8 H3         -1.5895    4.4285    2.6421 H         1 <0>         0.0713
      9 O2         -2.9274    2.8743    2.3708 O.3       1 <0>        -0.3636
     10 C5         -0.9601    2.7048    3.7354 C.2       1 <0>         0.4908
     11 O3         -1.5675    1.8641    4.3551 O.co2     1 <0>        -0.6181
     12 O4         -0.6822    1.5470    1.1838 O.3       1 <0>        -0.3703
     13 C6         -0.0127    1.0858    0.0080 C.3       1 <0>         0.2011
     14 O5         -0.7046    1.5596   -1.1500 O.3       1 <0>        -0.3848
     15 C7         -0.7976    2.9857   -1.2211 C.3       1 <0>         0.0580
     16 H4         -1.3670    3.2703   -2.1059 H         1 <0>         0.1083
     17 C8          0.5860    3.5779   -1.2976 C.2       1 <0>         0.4509
     18 O6          1.5553    2.8631   -1.2011 O.co2     1 <0>        -0.6171
     19 H5         -4.5969    2.9771    1.1566 H         1 <0>         0.1175
     20 H6         -3.6487    4.4782    1.2847 H         1 <0>         0.0301
     21 H7          0.0021   -0.0041    0.0020 H         1 <0>         0.1086
     22 H8          1.0098    1.4632    0.0003 H         1 <0>         0.0854
     23 O7          0.2712    3.0686    4.1271 O.co2     1 <0>        -0.7600
     24 O8          0.7415    4.8996   -1.4729 O.co2     1 <0>        -0.7589
@<TRIPOS>BOND
     1    1    9 1
     2    1    2 1
     3    1   19 1
     4    1   20 1
     5    2    3 1
     6    3    4 1
     7    3   15 1
     8    3    5 1
     9    5    6 1
    10    5    7 1
    11    5   12 1
    12    7    8 1
    13    7    9 1
    14    7   10 1
    15   10   11 2
    16   10   23 1
    17   12   13 1
    18   13   14 1
    19   13   21 1
    20   13   22 1
    21   14   15 1
    22   15   16 1
    23   15   17 1
    24   17   18 2
    25   17   24 1
@<TRIPOS>MOLECULE
ZINC05178454
   28    27     0     0     0
SMALL
USER_CHARGES
2-[N-[2-[(carboxymethylsulfanyl-sulfanyl-methylene)amino]ethyl]-C-sulfanyl-carbonimidoyl]sulfanylacetic acid
@<TRIPOS>ATOM
      1 C1         -0.1872    1.0668    0.1096 C.3       1 <0>         0.0547
      2 C2         -1.0327    0.7299    1.3394 C.3       1 <0>         0.0555
      3 N1         -0.1860    0.1028    2.3573 N.2       1 <0>        -0.4830
      4 C3          0.0053    0.6970    3.5035 C.2       1 <0>         0.1578
      5 S1          1.1367    0.0168    4.6705 S.3       1 <0>        -0.1217
      6 S2         -0.8679    2.1794    3.8839 S.3       1 <0>        -0.0561
      7 C4         -0.2107    2.5160    5.5365 C.3       1 <0>        -0.1822
      8 C5         -0.7723    3.8188    6.0446 C.2       1 <0>         0.4862
      9 O1         -1.5382    4.4546    5.3597 O.co2     1 <0>        -0.6039
     10 N2         -1.0056    1.7993   -0.8599 N.2       1 <0>        -0.4833
     11 C6         -0.6806    3.0166   -1.2006 C.2       1 <0>         0.1580
     12 S3         -1.7421    3.9502   -2.2524 S.3       1 <0>        -0.1241
     13 S4          0.8195    3.7265   -0.6086 S.3       1 <0>        -0.0549
     14 C7          0.7228    5.3586   -1.3851 C.3       1 <0>        -0.1823
     15 C8          1.9354    6.1684   -1.0048 C.2       1 <0>         0.4865
     16 O2          2.7786    5.6911   -0.2829 O.co2     1 <0>        -0.6041
     17 H1          0.1766    0.1452   -0.3448 H         1 <0>         0.0964
     18 H2          0.6603    1.6834    0.4091 H         1 <0>         0.0653
     19 H3         -1.4685    1.6442    1.7422 H         1 <0>         0.0650
     20 H4         -1.8292    0.0422    1.0554 H         1 <0>         0.0970
     21 H5          0.9381    0.9029    5.7491 H         1 <0>         0.1427
     22 H6         -0.4957    1.7094    6.2120 H         1 <0>         0.0944
     23 H7          0.8762    2.5829    5.4886 H         1 <0>         0.0996
     24 H8         -1.0295    5.1658   -2.3029 H         1 <0>         0.1440
     25 H9          0.6876    5.2440   -2.4685 H         1 <0>         0.0959
     26 H10        -0.1773    5.8703   -1.0444 H         1 <0>         0.0984
     27 O3         -0.4216    4.2730    7.2580 O.co2     1 <0>        -0.7509
     28 O4          2.0789    7.4201   -1.4681 O.co2     1 <0>        -0.7509
@<TRIPOS>BOND
     1    1    2 1
     2    1   10 1
     3    1   17 1
     4    1   18 1
     5    2    3 1
     6    2   19 1
     7    2   20 1
     8    3    4 2
     9    4    5 1
    10    4    6 1
    11    5   21 1
    12    6    7 1
    13    7    8 1
    14    7   22 1
    15    7   23 1
    16    8    9 2
    17    8   27 1
    18   10   11 2
    19   11   12 1
    20   11   13 1
    21   12   24 1
    22   13   14 1
    23   14   15 1
    24   14   25 1
    25   14   26 1
    26   15   16 2
    27   15   28 1
@<TRIPOS>MOLECULE
ZINC06782357
   39    42     0     0     0
SMALL
USER_CHARGES
hydroxy-N-(5-isopropyl-1,3,4-thiadiazol-2-yl)-oxo-BLAHcarboxamide
@<TRIPOS>ATOM
      1 C1         -3.5639    0.6351    7.7094 C.3       1 <0>        -0.1358
      2 C2         -2.5598    1.7885    7.7596 C.3       1 <0>         0.0378
      3 C3         -1.6629    1.6308    8.9891 C.3       1 <0>        -0.1357
      4 C4         -1.7121    1.7712    6.5138 C.2       1 <0>        -0.0862
      5 N1         -0.9085    0.8354    6.0491 N.2       1 <0>        -0.2278
      6 N2         -0.2605    0.9783    4.9765 N.2       1 <0>        -0.4014
      7 C5         -0.3485    2.0829    4.2482 C.2       1 <0>         0.3955
      8 S1         -1.5022    3.0194    5.2474 S.3       1 <0>        -0.2198
      9 N3          0.2792    2.4196    3.0548 N.2       1 <0>        -0.6330
     10 C6          1.1276    1.5502    2.4710 C.2       1 <0>         0.5983
     11 O1          1.3440    0.4703    2.9887 O.3       1 <0>        -0.5744
     12 C7          1.7901    1.9055    1.2117 C.2       1 <0>        -0.4456
     13 C8          3.0539    2.5650    1.2405 C.2       1 <0>         0.4243
     14 O2          3.6032    2.8435    2.2925 O.2       1 <0>        -0.5597
     15 C9          3.6636    2.8997   -0.0593 C.ar      1 <0>        -0.1765
     16 C10         4.8916    3.5474   -0.1871 C.ar      1 <0>        -0.0360
     17 C11         5.3777    3.8161   -1.4511 C.ar      1 <0>        -0.1896
     18 C12         4.6677    3.4542   -2.5905 C.ar      1 <0>        -0.0628
     19 C13         3.4536    2.8139   -2.4731 C.ar      1 <0>        -0.1754
     20 C14         2.9650    2.5436   -1.2131 C.ar      1 <0>         0.1840
     21 N4          1.7553    1.9057   -1.1916 N.pl3     1 <0>        -0.5237
     22 C15         1.1808    1.5907   -0.0007 C.2       1 <0>         0.5124
     23 O3         -0.0110    0.9628    0.0073 O.3       1 <0>        -0.6754
     24 C16         1.3203    1.6905   -2.5812 C.3       1 <0>         0.1135
     25 C17         2.4384    2.2888   -3.4599 C.3       1 <0>        -0.0704
     26 H1         -4.2087    0.7485    6.8254 H         1 <0>         0.0516
     27 H2         -4.1827    0.6479    8.6187 H         1 <0>         0.0478
     28 H3         -3.0221   -0.3203    7.6479 H         1 <0>         0.0609
     29 H4         -3.0949    2.7484    7.8077 H         1 <0>         0.0720
     30 H5         -0.9410    2.4600    9.0251 H         1 <0>         0.0516
     31 H6         -1.1211    0.6754    8.9276 H         1 <0>         0.0609
     32 H7         -2.2817    1.6436    9.8984 H         1 <0>         0.0478
     33 H8          5.4541    3.8343    0.6891 H         1 <0>         0.1278
     34 H9          6.3285    4.3173   -1.5570 H         1 <0>         0.1140
     35 H10         5.0687    3.6751   -3.5687 H         1 <0>         0.1142
     36 H11         1.1984    0.6128   -2.7645 H         1 <0>         0.0753
     37 H12         0.3608    2.2017   -2.7484 H         1 <0>         0.0761
     38 H13         2.0713    3.1169   -4.0839 H         1 <0>         0.0819
     39 H14         2.9088    1.5280   -4.1001 H         1 <0>         0.0814
@<TRIPOS>BOND
     1    1    2 1
     2    1   26 1
     3    1   27 1
     4    1   28 1
     5    2    3 1
     6    2    4 1
     7    2   29 1
     8    3   30 1
     9    3   31 1
    10    3   32 1
    11    4    8 1
    12    4    5 2
    13    5    6 1
    14    6    7 2
    15    7    8 1
    16    7    9 1
    17    9   10 2
    18   10   11 1
    19   10   12 1
    20   12   22 2
    21   12   13 1
    22   13   14 2
    23   13   15 1
    24   15   20 ar
    25   15   16 ar
    26   16   17 ar
    27   16   33 1
    28   17   18 ar
    29   17   34 1
    30   18   19 ar
    31   18   35 1
    32   19   25 1
    33   19   20 ar
    34   20   21 1
    35   21   22 1
    36   21   24 1
    37   22   23 1
    38   24   25 1
    39   24   36 1
    40   24   37 1
    41   25   38 1
    42   25   39 1
@<TRIPOS>MOLECULE
ZINC41018407
   29    30     0     0     0
SMALL
USER_CHARGES

@<TRIPOS>ATOM
      1 C1         -0.0189    1.5390    0.0105 C.3       1 <0>        -0.1270
      2 C2          1.4884    1.9071   -0.0019 C.3       1 <0>        -0.1294
      3 C3          2.0919    0.7759    0.8676 C.3       1 <0>         0.1202
      4 N1          1.3128   -0.4257    0.5176 N.pl3     1 <0>        -1.0050
      5 C4          0.0021   -0.0041    0.0020 C.3       1 <0>         0.1243
      6 S1          1.8289   -1.9910    0.6777 S.o2      1 <0>         2.7596
      7 O1          1.0727   -2.7642   -0.2441 O.2       1 <0>        -1.0244
      8 O2          3.2493   -1.9546    0.6563 O.2       1 <0>        -1.0244
      9 N2          1.3912   -2.4984    2.1920 N.2       1 <0>        -1.0493
     10 C5          1.6986   -3.7883    2.6087 C.2       1 <0>         0.4269
     11 N3          2.3302   -4.7474    1.9607 N.2       1 <0>        -0.4574
     12 N4          2.5317   -5.9658    2.5669 N.2       1 <0>        -0.2855
     13 C6          2.0919   -6.1689    3.7940 C.2       1 <0>         0.0118
     14 S2          1.3507   -4.5873    4.1680 S.3       1 <0>        -0.0981
     15 S3          2.2096   -7.6122    4.7978 S.3       1 <0>         0.0479
     16 C7          3.0944   -8.8024    3.7531 C.3       1 <0>        -0.1679
     17 C8          3.2644  -10.0990    4.5020 C.2       1 <0>         0.5176
     18 O3          2.8291  -10.2100    5.6354 O.co2     1 <0>        -0.6785
     19 O4          3.8373  -11.0371    3.9744 O.co2     1 <0>        -0.6879
     20 H1         -0.4998    1.9132    0.9143 H         1 <0>         0.0726
     21 H2         -0.5169    1.9228   -0.8798 H         1 <0>         0.0731
     22 H3          1.8895    1.8774   -1.0150 H         1 <0>         0.0708
     23 H4          1.6561    2.8825    0.4546 H         1 <0>         0.0758
     24 H5          3.1442    0.6302    0.6235 H         1 <0>         0.0752
     25 H6          1.9758    1.0083    1.9262 H         1 <0>         0.0616
     26 H7         -0.7901   -0.3891    0.6441 H         1 <0>         0.0623
     27 H8         -0.1315   -0.3710   -1.0156 H         1 <0>         0.0614
     28 H9          2.5232   -8.9812    2.8421 H         1 <0>         0.0869
     29 H10         4.0742   -8.4009    3.4946 H         1 <0>         0.0868
@<TRIPOS>BOND
     1    1    5 1
     2    1    2 1
     3    1   20 1
     4    1   21 1
     5    2    3 1
     6    2   22 1
     7    2   23 1
     8    3    4 1
     9    3   24 1
    10    3   25 1
    11    4    5 1
    12    4    6 1
    13    5   26 1
    14    5   27 1
    15    6    7 2
    16    6    8 2
    17    6    9 1
    18    9   10 1
    19   10   14 1
    20   10   11 2
    21   11   12 1
    22   12   13 2
    23   13   14 1
    24   13   15 1
    25   15   16 1
    26   16   17 1
    27   16   28 1
    28   16   29 1
    29   17   18 2
    30   17   19 1
@<TRIPOS>MOLECULE
ZINC32707978
   37    38     0     0     0
SMALL
USER_CHARGES

@<TRIPOS>ATOM
      1 C1         -0.1451    1.4842   -2.1525 C.3       1 <0>         0.0360
      2 O1         -0.0422    0.0636   -2.2677 O.3       1 <0>        -0.3470
      3 C2          0.3327   -0.6140   -1.1651 C.2       1 <0>         0.5149
      4 O2          0.5657   -0.0152   -0.1341 O.2       1 <0>        -0.5157
      5 C3          0.4601   -2.0839   -1.2098 C.ar      1 <0>        -0.1313
      6 C4          0.1973   -2.7720   -2.3983 C.ar      1 <0>        -0.0605
      7 C5          0.3148   -4.1321   -2.4410 C.ar      1 <0>        -0.0640
      8 C6          0.6989   -4.8375   -1.2936 C.ar      1 <0>        -0.0177
      9 C7          0.9619   -4.1471   -0.1038 C.ar      1 <0>        -0.1103
     10 C8          0.8492   -2.7865   -0.0652 C.ar      1 <0>        -0.0635
     11 C9          0.8253   -6.3006   -1.3380 C.2       1 <0>        -0.0082
     12 C10         1.3416   -6.9036   -2.4378 C.2       1 <0>        -0.1577
     13 C11         1.9947   -6.3044   -3.6245 C.2       1 <0>         0.5401
     14 O3          2.1431   -5.1021   -3.7347 O.2       1 <0>        -0.4435
     15 N1          2.4084   -7.1452   -4.5577 N.am      1 <0>        -0.4671
     16 C12         2.2417   -8.4771   -4.4312 C.2       1 <0>         0.2665
     17 S1          2.7053   -9.7139   -5.5205 S.2       1 <0>        -0.2257
     18 S2          1.4282   -8.6409   -2.8503 S.3       1 <0>        -0.0343
     19 C13         3.0627   -6.6168   -5.7573 C.3       1 <0>         0.0763
     20 H1          3.1134   -5.5298   -5.6946 H         1 <0>         0.1033
     21 C14         4.4782   -7.1884   -5.8598 C.3       1 <0>        -0.1987
     22 C15         5.3057   -6.6912   -4.7026 C.2       1 <0>         0.4909
     23 O4          4.8093   -5.9485   -3.8728 O.co2     1 <0>        -0.6916
     24 O5          6.4716   -7.0316   -4.5961 O.co2     1 <0>        -0.7151
     25 C16         2.2714   -7.0133   -6.9770 C.2       1 <0>         0.4958
     26 O6          2.2701   -6.2957   -7.9627 O.co2     1 <0>        -0.6914
     27 O7          1.6324   -8.0517   -6.9781 O.co2     1 <0>        -0.6561
     28 H2         -0.8829    1.7344   -1.3901 H         1 <0>         0.0574
     29 H3          0.8234    1.8970   -1.8703 H         1 <0>         0.0593
     30 H4         -0.4545    1.9049   -3.1093 H         1 <0>         0.1007
     31 H5         -0.0992   -2.2279   -3.2828 H         1 <0>         0.1376
     32 H6          0.1114   -4.6633   -3.3590 H         1 <0>         0.1342
     33 H7          1.2581   -4.6899    0.7817 H         1 <0>         0.1349
     34 H8          1.0562   -2.2535    0.8510 H         1 <0>         0.1347
     35 H9          0.5072   -6.8959   -0.4949 H         1 <0>         0.1520
     36 H10         4.4333   -8.2771   -5.8330 H         1 <0>         0.0926
     37 H11         4.9331   -6.8664   -6.7966 H         1 <0>         0.0722
@<TRIPOS>BOND
     1    1    2 1
     2    1   28 1
     3    1   29 1
     4    1   30 1
     5    2    3 1
     6    3    4 2
     7    3    5 1
     8    5   10 ar
     9    5    6 ar
    10    6    7 ar
    11    6   31 1
    12    7    8 ar
    13    7   32 1
    14    8    9 ar
    15    8   11 1
    16    9   10 ar
    17    9   33 1
    18   10   34 1
    19   11   12 2
    20   11   35 1
    21   12   18 1
    22   12   13 1
    23   13   14 2
    24   13   15 am
    25   15   16 1
    26   15   19 1
    27   16   17 2
    28   16   18 1
    29   19   20 1
    30   19   21 1
    31   19   25 1
    32   21   22 1
    33   21   36 1
    34   21   37 1
    35   22   23 2
    36   22   24 1
    37   25   26 2
    38   25   27 1
@<TRIPOS>MOLECULE
ZINC04159834
   21    22     0     0     0
SMALL
USER_CHARGES
6,6,7,7-tetrafluoro-3-oxabicyclo[3.2.0]heptane-2,4-dicarboxylic acid
@<TRIPOS>ATOM
      1 C1         -2.0184   -0.5624    1.3111 C.3       1 <0>        -0.2135
      2 H1         -3.0598   -0.8811    1.2656 H         1 <0>         0.1401
      3 C2         -1.2020   -1.6125    2.1836 C.3       1 <0>        -0.1795
      4 H2         -0.1553   -1.3374    2.3138 H         1 <0>         0.1562
      5 C3         -1.3875   -2.7803    1.2389 C.3       1 <0>         0.0665
      6 H3         -2.4237   -3.1185    1.2405 H         1 <0>         0.0749
      7 O1         -1.0291   -2.2030   -0.0539 O.3       1 <0>        -0.3274
      8 C4         -1.2926   -0.7753    0.0102 C.3       1 <0>         0.0540
      9 H4         -1.9197   -0.4687   -0.8270 H         1 <0>         0.0915
     10 C5          0.0021   -0.0041    0.0020 C.2       1 <0>         0.4544
     11 O2          1.0565   -0.5939   -0.0112 O.co2     1 <0>        -0.6014
     12 C6         -0.4573   -3.9108    1.5964 C.2       1 <0>         0.4738
     13 O3          0.4146   -4.2416    0.8282 O.co2     1 <0>        -0.6042
     14 C7         -2.1096   -1.0483    3.2296 C.3       1 <0>         0.2739
     15 C8         -1.7131    0.2826    2.5028 C.3       1 <0>         0.3006
     16 F1         -0.3673    0.6412    2.6348 F         1 <0>        -0.1240
     17 F2         -2.5994    1.3456    2.7072 F         1 <0>        -0.1766
     18 F3         -1.6310   -1.1620    4.5393 F         1 <0>        -0.1683
     19 F4         -3.4540   -1.4098    3.0912 F         1 <0>        -0.1523
     20 O4         -0.0161    1.3381    0.0094 O.co2     1 <0>        -0.7691
     21 O5         -0.5974   -4.5501    2.7683 O.co2     1 <0>        -0.7695
@<TRIPOS>BOND
     1    1    2 1
     2    1    8 1
     3    1   15 1
     4    1    3 1
     5    3    4 1
     6    3    5 1
     7    3   14 1
     8    5    6 1
     9    5    7 1
    10    5   12 1
    11    7    8 1
    12    8    9 1
    13    8   10 1
    14   10   11 2
    15   10   20 1
    16   12   13 2
    17   12   21 1
    18   14   15 1
    19   14   18 1
    20   14   19 1
    21   15   16 1
    22   15   17 1
@<TRIPOS>MOLECULE
ZINC00056396
   16    16     0     0     0
SMALL
USER_CHARGES
2,3,5,6-tetrafluoroterephthalic acid
@<TRIPOS>ATOM
      1 C1         -1.2367    2.0295    0.0189 C.ar      1 <0>        -0.1209
      2 C2         -1.2556    3.4278    0.0316 C.ar      1 <0>         0.0975
      3 C3         -0.0675    4.1355    0.0245 C.ar      1 <0>         0.0975
      4 C4          1.1530    3.4528    0.0092 C.ar      1 <0>        -0.1209
      5 C5          1.1719    2.0545    0.0019 C.ar      1 <0>         0.0975
      6 C6         -0.0162    1.3468    0.0094 C.ar      1 <0>         0.0975
      7 F1          0.0021   -0.0041    0.0020 F         1 <0>        -0.1189
      8 F2          2.3509    1.3950   -0.0129 F         1 <0>        -0.1189
      9 C7          2.4215    4.2085    0.0011 C.2       1 <0>         0.5124
     10 O1          2.9335    4.5246   -1.0541 O.co2     1 <0>        -0.6125
     11 F3         -0.0858    5.4864    0.0320 F         1 <0>        -0.1189
     12 F4         -2.4346    4.0873    0.0461 F         1 <0>        -0.1189
     13 C8         -2.5053    1.2739    0.0209 C.2       1 <0>         0.5125
     14 O2         -3.0221    0.9574    1.0736 O.co2     1 <0>        -0.6125
     15 O3          3.0112    4.5472    1.1641 O.co2     1 <0>        -0.7363
     16 O4         -3.0896    0.9355   -1.1449 O.co2     1 <0>        -0.7363
@<TRIPOS>BOND
     1    1    6 ar
     2    1    2 ar
     3    1   13 1
     4    2    3 ar
     5    2   12 1
     6    3    4 ar
     7    3   11 1
     8    4    5 ar
     9    4    9 1
    10    5    6 ar
    11    5    8 1
    12    6    7 1
    13    9   10 2
    14    9   15 1
    15   13   14 2
    16   13   16 1
@<TRIPOS>MOLECULE
ZINC02439441
   40    42     0     0     0
SMALL
USER_CHARGES
1-allyl-5-[(1S)-4,5-dimethoxy-3-oxo-1H-isobenzofuran-1-yl]-6-hydroxy-2-sulfanyl-pyrimidin-4-one
@<TRIPOS>ATOM
      1 C1         -2.3113   -3.1653    5.9183 C.3       1 <0>         0.0238
      2 O1         -2.1434   -3.8168    4.6576 O.3       1 <0>        -0.3091
      3 C2         -1.9394   -3.0211    3.5737 C.ar      1 <0>         0.0793
      4 C3         -1.9023   -1.6451    3.7241 C.ar      1 <0>        -0.1659
      5 C4         -1.6944   -0.8271    2.6241 C.ar      1 <0>        -0.0620
      6 C5         -1.5242   -1.3774    1.3771 C.ar      1 <0>        -0.0585
      7 C6         -1.5589   -2.7660    1.2045 C.ar      1 <0>        -0.1699
      8 C7         -1.7689   -3.5916    2.3159 C.ar      1 <0>         0.1366
      9 O2         -1.8060   -4.9403    2.1673 O.3       1 <0>        -0.3159
     10 C8         -3.0806   -5.5287    1.9004 C.3       1 <0>         0.0410
     11 C9         -1.3494   -3.0538   -0.2227 C.2       1 <0>         0.5457
     12 O3         -1.3231   -4.1664   -0.7104 O.2       1 <0>        -0.4815
     13 O4         -1.1917   -1.9099   -0.9100 O.3       1 <0>        -0.3003
     14 C10        -1.2851   -0.7877    0.0096 C.3       1 <0>         0.2325
     15 H1         -2.1027   -0.1228   -0.3058 H         1 <0>         0.1196
     16 C11         0.0021   -0.0041    0.0020 C.2       1 <0>        -0.5059
     17 C12         1.2466   -0.6691   -0.0134 C.2       1 <0>         0.5330
     18 O5          1.2901   -1.8907   -0.0200 O.3       1 <0>        -0.5999
     19 N1          2.3819    0.0458   -0.0204 N.2       1 <0>        -0.6296
     20 C13         2.3514    1.3624   -0.0131 C.2       1 <0>         0.5623
     21 N2          1.1699    2.0400    0.0018 N.pl3     1 <0>        -0.5278
     22 C14        -0.0164    1.3575    0.0095 C.2       1 <0>         0.4882
     23 O6         -1.1909    2.0262    0.0187 O.3       1 <0>        -0.7138
     24 C15         1.1690    3.5050    0.0092 C.3       1 <0>         0.1349
     25 C16         1.1819    4.0002    1.4325 C.2       1 <0>        -0.1425
     26 C17         2.1144    4.8306    1.8286 C.2       1 <0>        -0.1854
     27 S1          3.8657    2.2633   -0.0221 S.2       1 <0>        -0.8472
     28 H2         -2.4669   -3.9201    6.7032 H         1 <0>         0.0959
     29 H3         -3.1847   -2.4982    5.8728 H         1 <0>         0.0526
     30 H4         -1.4115   -2.5762    6.1493 H         1 <0>         0.0557
     31 H5         -2.0356   -1.2073    4.7024 H         1 <0>         0.1360
     32 H6         -1.6665    0.2454    2.7480 H         1 <0>         0.1380
     33 H7         -2.9682   -6.6186    1.8032 H         1 <0>         0.0899
     34 H8         -3.4857   -5.1169    0.9643 H         1 <0>         0.0457
     35 H9         -3.7690   -5.3035    2.7283 H         1 <0>         0.0404
     36 H10         0.2658    3.8737   -0.4991 H         1 <0>         0.0791
     37 H11         2.0620    3.8749   -0.5158 H         1 <0>         0.1037
     38 H12         0.4083    3.6644    2.1388 H         1 <0>         0.0962
     39 H13         2.1239    5.1921    2.8675 H         1 <0>         0.0825
     40 H14         2.8880    5.1664    1.1223 H         1 <0>         0.1027
@<TRIPOS>BOND
     1    1    2 1
     2    1   28 1
     3    1   29 1
     4    1   30 1
     5    2    3 1
     6    3    8 ar
     7    3    4 ar
     8    4    5 ar
     9    4   31 1
    10    5    6 ar
    11    5   32 1
    12    6   14 1
    13    6    7 ar
    14    7    8 ar
    15    7   11 1
    16    8    9 1
    17    9   10 1
    18   10   33 1
    19   10   34 1
    20   10   35 1
    21   11   12 2
    22   11   13 1
    23   13   14 1
    24   14   15 1
    25   14   16 1
    26   16   22 2
    27   16   17 1
    28   17   18 1
    29   17   19 2
    30   19   20 1
    31   20   27 2
    32   20   21 1
    33   21   22 1
    34   21   24 1
    35   22   23 1
    36   24   25 1
    37   24   36 1
    38   24   37 1
    39   25   26 2
    40   25   38 1
    41   26   39 1
    42   26   40 1
@<TRIPOS>MOLECULE
ZINC41606956
   26    27     0     0     0
SMALL
USER_CHARGES

@<TRIPOS>ATOM
      1 C1          0.0498    1.1545    0.5543 C.2       1 <0>        -0.1771
      2 C2          1.2694    1.7542    0.7572 C.2       1 <0>        -0.1339
      3 C3          2.3205    1.2524    0.0007 C.2       1 <0>        -0.1600
      4 S1          1.5142   -0.0282   -0.9417 S.3       1 <0>         0.2711
      5 C4         -0.0463    0.1426   -0.3436 C.2       1 <0>        -0.2883
      6 C5          3.7237    1.6672   -0.0184 C.2       1 <0>         0.2309
      7 C6          4.0401    3.0180   -0.1144 C.2       1 <0>        -0.2139
      8 C7          5.3641    3.4159   -0.1329 C.2       1 <0>        -0.0222
      9 C8          6.3715    2.4430   -0.0539 C.2       1 <0>        -0.2374
     10 C9          6.0087    1.0755    0.0430 C.2       1 <0>         0.5241
     11 O1          6.8736    0.2198    0.1123 O.2       1 <0>        -0.5111
     12 N1          4.7098    0.7221    0.0641 N.am      1 <0>        -0.4571
     13 C10         4.3473   -0.6934    0.1709 C.3       1 <0>         0.0072
     14 C11         4.3637   -1.3209   -1.1991 C.2       1 <0>         0.4955
     15 O2          4.6515   -0.6482   -2.1743 O.co2     1 <0>        -0.6691
     16 O3          4.0892   -2.5014   -1.3322 O.co2     1 <0>        -0.6968
     17 C12         7.7800    2.8344   -0.0718 C.2       1 <0>         0.5345
     18 O4          8.0858    4.0175   -0.1561 O.co2     1 <0>        -0.7103
     19 O5          8.6543    1.9793   -0.0024 O.co2     1 <0>        -0.6643
     20 H1         -0.8195    1.4815    1.1056 H         1 <0>         0.1232
     21 H2          1.4020    2.5640    1.4594 H         1 <0>         0.1405
     22 H3         -0.9254   -0.4243   -0.6125 H         1 <0>         0.1767
     23 H4          3.2529    3.7549   -0.1748 H         1 <0>         0.1318
     24 H5          5.6195    4.4626   -0.2076 H         1 <0>         0.1339
     25 H6          5.0644   -1.2045    0.8133 H         1 <0>         0.0932
     26 H7          3.3488   -0.7814    0.5990 H         1 <0>         0.0789
@<TRIPOS>BOND
     1    1    5 2
     2    1    2 1
     3    1   20 1
     4    2    3 2
     5    2   21 1
     6    3    4 1
     7    3    6 1
     8    4    5 1
     9    5   22 1
    10    6   12 1
    11    6    7 2
    12    7    8 1
    13    7   23 1
    14    8    9 2
    15    8   24 1
    16    9   10 1
    17    9   17 1
    18   10   11 2
    19   10   12 am
    20   12   13 1
    21   13   14 1
    22   13   25 1
    23   13   26 1
    24   14   15 2
    25   14   16 1
    26   17   18 2
    27   17   19 1
@<TRIPOS>MOLECULE
ZINC34743158
   18    17     0     0     0
SMALL
USER_CHARGES

@<TRIPOS>ATOM
      1 C1         -0.0815    1.3515    0.0260 C.3       1 <0>        -0.0608
      2 C2         -0.7155    1.3995   -1.3656 C.3       1 <0>        -0.1830
      3 C3         -2.0209    0.6466   -1.3492 C.2       1 <0>         0.4938
      4 O1         -2.4082    0.1204   -0.3198 O.co2     1 <0>        -0.7108
      5 O2         -2.6897    0.5636   -2.3652 O.co2     1 <0>        -0.7220
      6 C4          1.3063    1.9936   -0.0235 C.3       1 <0>        -0.2112
      7 H1          1.8915    1.5334   -0.8196 H         1 <0>         0.0960
      8 C5          1.1674    3.4701   -0.2913 C.2       1 <0>         0.5074
      9 O3          2.0481    4.2382    0.0562 O.co2     1 <0>        -0.6943
     10 O4          0.1743    3.8965   -0.8556 O.co2     1 <0>        -0.6613
     11 C6          2.0139    1.7828    1.3166 C.3       1 <0>         0.4678
     12 F1          2.0395    0.4175    1.6207 F         1 <0>        -0.2030
     13 F2          3.3239    2.2667    1.2335 F         1 <0>        -0.1843
     14 F3          1.3252    2.4714    2.3210 F         1 <0>        -0.1870
     15 H2         -0.7094    1.8971    0.7303 H         1 <0>         0.0588
     16 H3          0.0094    0.3142    0.3483 H         1 <0>         0.0503
     17 H4         -0.8980    2.4368   -1.6462 H         1 <0>         0.1040
     18 H5         -0.0407    0.9409   -2.0884 H         1 <0>         0.0398
@<TRIPOS>BOND
     1    1    2 1
     2    1    6 1
     3    1   15 1
     4    1   16 1
     5    2    3 1
     6    2   17 1
     7    2   18 1
     8    3    4 2
     9    3    5 1
    10    6    7 1
    11    6    8 1
    12    6   11 1
    13    8    9 2
    14    8   10 1
    15   11   12 1
    16   11   13 1
    17   11   14 1
@<TRIPOS>MOLECULE
ZINC02484656
   20    19     0     0     0
SMALL
USER_CHARGES
3-(2-carboxyethylsulfinyl)propanoic acid
@<TRIPOS>ATOM
      1 C1          2.4013    1.6019    1.2742 C.3       1 <0>        -0.1366
      2 C2          1.6846    2.0446   -0.0030 C.3       1 <0>        -0.4096
      3 S1         -0.0172    1.4168    0.0098 S.o       1 <0>         1.2009
      4 O1          0.0021   -0.0041    0.0020 O.2       1 <0>        -0.8668
      5 C3         -0.7195    2.0205   -1.5499 C.3       1 <0>        -0.4096
      6 C4         -2.1724    1.5560   -1.6686 C.3       1 <0>        -0.1366
      7 C5         -2.7559    2.0576   -2.9644 C.2       1 <0>         0.4649
      8 O2         -2.0791    2.7187   -3.7159 O.co2     1 <0>        -0.6383
      9 C6          3.8151    2.1235    1.2635 C.2       1 <0>         0.4650
     10 O3          4.2091    2.7818    0.3301 O.co2     1 <0>        -0.6383
     11 H1          1.8744    1.9979    2.1423 H         1 <0>         0.0746
     12 H2          2.4160    0.5131    1.3237 H         1 <0>         0.0669
     13 H3          2.2115    1.6485   -0.8712 H         1 <0>         0.0793
     14 H4          1.6699    3.1334   -0.0526 H         1 <0>         0.1129
     15 H5         -0.6838    3.1098   -1.5669 H         1 <0>         0.1129
     16 H6         -0.1422    1.6250   -2.3856 H         1 <0>         0.0793
     17 H7         -2.2082    0.4667   -1.6516 H         1 <0>         0.0669
     18 H8         -2.7498    1.9516   -0.8330 H         1 <0>         0.0746
     19 O4         -4.0275    1.7698   -3.2838 O.co2     1 <0>        -0.7811
     20 O5          4.6366    1.8567    2.2909 O.co2     1 <0>        -0.7811
@<TRIPOS>BOND
     1    1    2 1
     2    1    9 1
     3    1   11 1
     4    1   12 1
     5    2    3 1
     6    2   13 1
     7    2   14 1
     8    3    4 2
     9    3    5 1
    10    5    6 1
    11    5   15 1
    12    5   16 1
    13    6    7 1
    14    6   17 1
    15    6   18 1
    16    7    8 2
    17    7   19 1
    18    9   10 2
    19    9   20 1
@<TRIPOS>MOLECULE
ZINC15034661
   39    40     0     0     0
SMALL
USER_CHARGES
(2S)-2-[(5Z)-5-[(4-dimethylaminophenyl)methylene]-4-oxo-2-thioxo-thiazolidin-3-yl]butanedioic acid
@<TRIPOS>ATOM
      1 C1          0.3851    9.3641    0.0516 C.3       1 <0>         0.0935
      2 N1         -0.2754    8.1276   -0.3738 N.pl3     1 <0>        -0.6364
      3 C2         -1.6420    8.1707   -0.8999 C.3       1 <0>         0.0869
      4 C3          0.3956    6.9116   -0.2781 C.ar      1 <0>         0.2225
      5 C4          1.6471    6.8555    0.3294 C.ar      1 <0>        -0.2031
      6 C5          2.3119    5.6603    0.4255 C.ar      1 <0>        -0.0385
      7 C6          1.7300    4.4943   -0.0886 C.ar      1 <0>        -0.1268
      8 C7          0.4729    4.5566   -0.7037 C.ar      1 <0>        -0.0441
      9 C8         -0.1868    5.7555   -0.7905 C.ar      1 <0>        -0.1942
     10 C9          2.4378    3.2125    0.0114 C.2       1 <0>         0.0360
     11 C10         1.8048    2.0592   -0.3253 C.2       1 <0>        -0.1943
     12 C11         2.3444    0.6908   -0.4473 C.2       1 <0>         0.5524
     13 O1          3.5182    0.4455   -0.2384 O.2       1 <0>        -0.4508
     14 N2          1.4885   -0.2552   -0.7954 N.am      1 <0>        -0.4683
     15 C12         0.1888    0.0210   -1.0263 C.2       1 <0>         0.3043
     16 S1         -1.0623   -1.0553   -1.4818 S.2       1 <0>        -0.3405
     17 S2          0.0888    1.7809   -0.7419 S.3       1 <0>        -0.0004
     18 C13         1.9629   -1.6343   -0.9337 C.3       1 <0>         0.0904
     19 H1          3.0294   -1.6756   -0.7124 H         1 <0>         0.1114
     20 C14         1.2041   -2.5351    0.0429 C.3       1 <0>        -0.1699
     21 C15         1.5402   -2.1379    1.4572 C.2       1 <0>         0.4617
     22 O2          2.3078   -1.2278    1.6630 O.co2     1 <0>        -0.6393
     23 C16         1.7238   -2.1087   -2.3440 C.2       1 <0>         0.4776
     24 O3          1.2098   -1.3705   -3.1507 O.co2     1 <0>        -0.6239
     25 H2          0.9187    9.8001   -0.7929 H         1 <0>         0.0469
     26 H3         -0.3630   10.0701    0.4123 H         1 <0>         0.0634
     27 H4          1.0909    9.1422    0.8520 H         1 <0>         0.0701
     28 H5         -1.9290    7.1782   -1.2473 H         1 <0>         0.0825
     29 H6         -2.3244    8.4916   -0.1128 H         1 <0>         0.0516
     30 H7         -1.6893    8.8743   -1.7310 H         1 <0>         0.0540
     31 H8          2.0948    7.7549    0.7258 H         1 <0>         0.1246
     32 H9          3.2825    5.6177    0.8972 H         1 <0>         0.1301
     33 H10         0.0223    3.6611   -1.1055 H         1 <0>         0.1380
     34 H11        -1.1578    5.8038   -1.2609 H         1 <0>         0.1292
     35 H12         3.4621    3.1864    0.3527 H         1 <0>         0.1540
     36 H13         0.1320   -2.4259   -0.1202 H         1 <0>         0.0974
     37 H14         1.4927   -3.5733   -0.1213 H         1 <0>         0.0913
     38 O4          0.9867   -2.7952    2.4884 O.co2     1 <0>        -0.7831
     39 O5          2.0818   -3.3513   -2.7039 O.co2     1 <0>        -0.7561
@<TRIPOS>BOND
     1    1    2 1
     2    1   25 1
     3    1   26 1
     4    1   27 1
     5    2    3 1
     6    2    4 1
     7    3   28 1
     8    3   29 1
     9    3   30 1
    10    4    9 ar
    11    4    5 ar
    12    5    6 ar
    13    5   31 1
    14    6    7 ar
    15    6   32 1
    16    7    8 ar
    17    7   10 1
    18    8    9 ar
    19    8   33 1
    20    9   34 1
    21   10   11 2
    22   10   35 1
    23   11   17 1
    24   11   12 1
    25   12   13 2
    26   12   14 am
    27   14   15 1
    28   14   18 1
    29   15   16 2
    30   15   17 1
    31   18   19 1
    32   18   20 1
    33   18   23 1
    34   20   21 1
    35   20   36 1
    36   20   37 1
    37   21   22 2
    38   21   38 1
    39   23   24 2
    40   23   39 1
@<TRIPOS>MOLECULE
ZINC15188640
   26    25     0     0     0
SMALL
USER_CHARGES

@<TRIPOS>ATOM
      1 C1          3.0097   -1.0890   -3.7907 C.3       1 <0>         0.0358
      2 O1          1.8414   -1.0430   -2.9691 O.3       1 <0>        -0.3403
      3 C2          1.6907   -2.0268   -2.0685 C.2       1 <0>         0.4802
      4 O2          2.5232   -2.8981   -1.9806 O.2       1 <0>        -0.5264
      5 C3          0.4832   -2.0446   -1.1670 C.3       1 <0>        -0.6284
      6 H1          0.7439   -2.5169   -0.2198 H         1 <0>         0.1346
      7 C4         -0.6425   -2.8342   -1.8378 C.3       1 <0>        -0.6284
      8 H2         -0.8714   -2.3893   -2.8062 H         1 <0>         0.1346
      9 C5         -0.2067   -4.2637   -2.0322 C.2       1 <0>         0.4803
     10 O3          0.3557   -4.5907   -3.0503 O.2       1 <0>        -0.5264
     11 O4         -0.4434   -5.1736   -1.0742 O.3       1 <0>        -0.3404
     12 C6         -0.0030   -6.5097   -1.3254 C.3       1 <0>         0.0358
     13 P1         -2.1283   -2.7901   -0.7824 P.3       1 <0>         2.1358
     14 H3         -3.0320   -3.8049   -1.1946 H         1 <0>        -0.5021
     15 O5         -1.7221   -3.0287    0.6890 O.2       1 <0>        -1.0194
     16 O6         -2.8105   -1.4098   -0.9110 O.3       1 <0>        -0.9738
     17 P2         -0.0720   -0.3353   -0.8612 P.3       1 <0>         2.1357
     18 H4          1.0543    0.4882   -0.5975 H         1 <0>        -0.5020
     19 O7         -0.8173    0.1946   -2.1065 O.2       1 <0>        -1.0194
     20 O8         -1.0229   -0.3128    0.3564 O.3       1 <0>        -0.9738
     21 H5          3.8985   -1.0482   -3.1610 H         1 <0>         0.0519
     22 H6          3.0136   -2.0152   -4.3653 H         1 <0>         0.0523
     23 H7          3.0081   -0.2385   -4.4725 H         1 <0>         0.1000
     24 H8         -0.4942   -6.8919   -2.2203 H         1 <0>         0.0519
     25 H9          1.0769   -6.5145   -1.4736 H         1 <0>         0.0523
     26 H10        -0.2558   -7.1417   -0.4741 H         1 <0>         0.1000
@<TRIPOS>BOND
     1    1    2 1
     2    1   21 1
     3    1   22 1
     4    1   23 1
     5    2    3 1
     6    3    4 2
     7    3    5 1
     8    5    6 1
     9    5    7 1
    10    5   17 1
    11    7    8 1
    12    7    9 1
    13    7   13 1
    14    9   10 2
    15    9   11 1
    16   11   12 1
    17   12   24 1
    18   12   25 1
    19   12   26 1
    20   13   14 1
    21   13   15 2
    22   13   16 1
    23   17   18 1
    24   17   19 2
    25   17   20 1
@<TRIPOS>MOLECULE
ZINC39953605
   27    27     0     0     0
SMALL
USER_CHARGES

@<TRIPOS>ATOM
      1 C1          0.0768    1.2100   -0.3483 C.3       1 <0>        -0.1194
      2 C2          0.2569   -0.3092   -0.3245 C.3       1 <0>         0.0292
      3 C3          1.1591   -0.7603   -1.4905 C.3       1 <0>         0.0304
      4 O1          2.2990   -1.3811   -0.8603 O.3       1 <0>        -0.3609
      5 C4          1.8185   -1.7918    0.4380 C.3       1 <0>         0.2353
      6 O2          0.9615   -0.7123    0.8684 O.3       1 <0>        -0.3684
      7 C5          1.0214   -3.0929    0.3247 C.3       1 <0>        -0.1885
      8 C6          2.9879   -1.9642    1.4095 C.3       1 <0>        -0.1243
      9 C7          0.4229   -1.7709   -2.3724 C.3       1 <0>        -0.1431
     10 C8          1.5949    0.4294   -2.3065 C.2       1 <0>         0.5199
     11 O3          2.7808    0.6870   -2.4234 O.co2     1 <0>        -0.6963
     12 O4          0.7615    1.1342   -2.8498 O.co2     1 <0>        -0.6793
     13 C9         -1.0824   -0.9959   -0.3993 C.2       1 <0>         0.5043
     14 O5         -1.8037   -0.8216   -1.3667 O.co2     1 <0>        -0.6805
     15 O6         -1.4447   -1.7258    0.5076 O.co2     1 <0>        -0.6950
     16 H1          1.0534    1.6924   -0.3067 H         1 <0>         0.0416
     17 H2         -0.4334    1.5011   -1.2664 H         1 <0>         0.1026
     18 H3         -0.5178    1.5189    0.5114 H         1 <0>         0.0291
     19 H4          1.6108   -3.8343   -0.2147 H         1 <0>         0.0451
     20 H5          0.7925   -3.4668    1.3227 H         1 <0>         0.0550
     21 H6          0.0931   -2.9044   -0.2145 H         1 <0>         0.1015
     22 H7          3.5188   -1.0176    1.5106 H         1 <0>         0.0621
     23 H8          2.6087   -2.2739    2.3833 H         1 <0>         0.0628
     24 H9          3.6694   -2.7239    1.0266 H         1 <0>         0.0631
     25 H10        -0.4063   -1.2759   -2.8778 H         1 <0>         0.0930
     26 H11         1.1115   -2.1750   -3.1145 H         1 <0>         0.0305
     27 H12         0.0392   -2.5817   -1.7533 H         1 <0>         0.0505
@<TRIPOS>BOND
     1    1    2 1
     2    1   16 1
     3    1   17 1
     4    1   18 1
     5    2    6 1
     6    2    3 1
     7    2   13 1
     8    3    4 1
     9    3    9 1
    10    3   10 1
    11    4    5 1
    12    5    6 1
    13    5    7 1
    14    5    8 1
    15    7   19 1
    16    7   20 1
    17    7   21 1
    18    8   22 1
    19    8   23 1
    20    8   24 1
    21    9   25 1
    22    9   26 1
    23    9   27 1
    24   10   11 2
    25   10   12 1
    26   13   14 2
    27   13   15 1
@<TRIPOS>MOLECULE
ZINC62268424
   29    30     0     0     0
SMALL
USER_CHARGES

@<TRIPOS>ATOM
      1 C1         -1.0574    2.6135   -0.6763 C.3       1 <0>        -0.1113
      2 C2         -0.8228    1.1296   -0.7947 C.2       1 <0>         0.4767
      3 O1          0.4208    0.6594   -1.0246 O.3       1 <0>        -0.7365
      4 N1         -1.8112    0.3086   -0.6761 N.2       1 <0>        -1.0609
      5 S1         -1.5534   -1.3220   -0.8062 S.o2      1 <0>         2.6523
      6 O2         -1.1554   -1.5645   -2.1486 O.2       1 <0>        -1.0052
      7 O3         -0.7515   -1.6964    0.3056 O.2       1 <0>        -1.0091
      8 C3         -3.1125   -2.1147   -0.5922 C.ar      1 <0>        -0.6211
      9 C4         -3.5311   -2.4834    0.6732 C.ar      1 <0>        -0.0232
     10 C5         -4.7525   -3.1048    0.8443 C.ar      1 <0>        -0.1235
     11 C6         -5.5606   -3.3593   -0.2561 C.ar      1 <0>         0.1689
     12 C7         -5.1373   -2.9878   -1.5255 C.ar      1 <0>        -0.0720
     13 C8         -3.9173   -2.3616   -1.6893 C.ar      1 <0>        -0.0137
     14 N2         -6.7996   -3.9898   -0.0861 N.pl3     1 <0>        -0.2334
     15 C9         -7.3036   -5.0060   -0.8625 C.2       1 <0>        -0.0418
     16 C10        -8.5408   -5.3021   -0.3202 C.2       1 <0>        -0.0382
     17 N3         -8.7008   -4.4757    0.7129 N.2       1 <0>        -0.2841
     18 N4         -7.6655   -3.7241    0.8281 N.2       1 <0>        -0.1025
     19 C11        -6.6650   -5.6409   -2.0209 C.2       1 <0>         0.5498
     20 O4         -5.4642   -5.5000   -2.2113 O.co2     1 <0>        -0.6581
     21 O5         -7.3331   -6.3115   -2.7968 O.co2     1 <0>        -0.6666
     22 H1         -0.1126    3.1420   -0.8034 H         1 <0>         0.0615
     23 H2         -1.7590    2.9330   -1.4469 H         1 <0>         0.0706
     24 H3         -1.4703    2.8388    0.3069 H         1 <0>         0.0702
     25 H4         -2.9020   -2.2855    1.5285 H         1 <0>         0.1441
     26 H5         -5.0788   -3.3929    1.8327 H         1 <0>         0.1334
     27 H6         -5.7633   -3.1847   -2.3833 H         1 <0>         0.1373
     28 H7         -3.5896   -2.0681   -2.6756 H         1 <0>         0.1454
     29 H8         -9.2374   -6.0520   -0.6648 H         1 <0>         0.1910
@<TRIPOS>BOND
     1    1    2 1
     2    1   22 1
     3    1   23 1
     4    1   24 1
     5    2    3 1
     6    2    4 2
     7    4    5 1
     8    5    6 2
     9    5    7 2
    10    5    8 1
    11    8   13 ar
    12    8    9 ar
    13    9   10 ar
    14    9   25 1
    15   10   11 ar
    16   10   26 1
    17   11   12 ar
    18   11   14 1
    19   12   13 ar
    20   12   27 1
    21   13   28 1
    22   14   18 1
    23   14   15 1
    24   15   16 2
    25   15   19 1
    26   16   17 1
    27   16   29 1
    28   17   18 2
    29   19   20 2
    30   19   21 1
@<TRIPOS>MOLECULE
ZINC04106557
   20    20     0     0     0
SMALL
USER_CHARGES
1-(2-carboxyacetyl)azetidine-3-carboxylic acid
@<TRIPOS>ATOM
      1 C1         -0.0127    1.0858    0.0080 C.3       1 <0>         0.1210
      2 C2         -0.9297    1.6788    1.0868 C.3       1 <0>        -0.1654
      3 C3         -1.9959    1.5681   -0.0145 C.3       1 <0>         0.1251
      4 N1         -0.9108    1.6649   -1.0024 N.am      1 <0>        -0.6602
      5 C4         -0.7916    2.0956   -2.2740 C.2       1 <0>         0.5358
      6 O1          0.2826    2.0416   -2.8343 O.2       1 <0>        -0.5054
      7 C5         -1.9932    2.6442   -2.9994 C.3       1 <0>        -0.1743
      8 C6         -1.5946    3.0527   -4.3942 C.2       1 <0>         0.4650
      9 O2         -0.4521    2.9127   -4.7614 O.co2     1 <0>        -0.5988
     10 C7         -1.1622    0.7713    2.2672 C.2       1 <0>         0.4779
     11 O3         -0.6426   -0.3190    2.3026 O.co2     1 <0>        -0.6365
     12 H1          0.0021   -0.0041    0.0020 H         1 <0>         0.0862
     13 H2          0.9867    1.5208    0.0008 H         1 <0>         0.0622
     14 H3         -0.6836    2.7024    1.3692 H         1 <0>         0.0975
     15 H4         -2.6830    2.4138   -0.0402 H         1 <0>         0.0708
     16 H5         -2.5100    0.6070   -0.0272 H         1 <0>         0.0765
     17 H6         -2.7668    1.8781   -3.0523 H         1 <0>         0.0889
     18 H7         -2.3770    3.5117   -2.4625 H         1 <0>         0.0894
     19 O4         -2.5089    3.5721   -5.2285 O.co2     1 <0>        -0.7850
     20 O5         -1.9465    1.1742    3.2793 O.co2     1 <0>        -0.7707
@<TRIPOS>BOND
     1    1    4 1
     2    1    2 1
     3    1   12 1
     4    1   13 1
     5    2    3 1
     6    2   10 1
     7    2   14 1
     8    3    4 1
     9    3   15 1
    10    3   16 1
    11    4    5 am
    12    5    6 2
    13    5    7 1
    14    7    8 1
    15    7   17 1
    16    7   18 1
    17    8    9 2
    18    8   19 1
    19   10   11 2
    20   10   20 1
@<TRIPOS>MOLECULE
ZINC05410170
   18    17     0     0     0
SMALL
USER_CHARGES
3-bromohexanedioic acid
@<TRIPOS>ATOM
      1 C1         -0.7288    1.5792    1.2668 C.3       1 <0>        -0.0943
      2 C2         -0.0638    0.9713    2.5033 C.3       1 <0>        -0.1609
      3 C3         -0.7691    1.4573    3.7432 C.2       1 <0>         0.4637
      4 O1         -1.7075    2.2124    3.6477 O.co2     1 <0>        -0.6447
      5 C4         -0.0127    1.0858    0.0080 C.3       1 <0>        -0.0087
      6 H1          0.0021   -0.0041    0.0020 H         1 <0>         0.0956
      7 C5         -0.7527    1.5927   -1.2315 C.3       1 <0>        -0.1585
      8 C6         -0.1210    1.0071   -2.4681 C.2       1 <0>         0.4621
      9 O2          0.8240    0.2609   -2.3683 O.co2     1 <0>        -0.6242
     10 Br1         1.8317    1.7663   -0.0059 Br        1 <0>        -0.1816
     11 H2         -0.6662    2.6662    1.3180 H         1 <0>         0.0678
     12 H3         -1.7755    1.2768    1.2315 H         1 <0>         0.0717
     13 H4         -0.1264   -0.1157    2.4522 H         1 <0>         0.0615
     14 H5          0.9829    1.2737    2.5386 H         1 <0>         0.0736
     15 H6         -1.7985    1.2898   -1.1795 H         1 <0>         0.0765
     16 H7         -0.6910    2.6801   -1.2722 H         1 <0>         0.0728
     17 O3         -0.3549    1.0513    4.9537 O.co2     1 <0>        -0.7862
     18 O4         -0.6083    1.3144   -3.6805 O.co2     1 <0>        -0.7861
@<TRIPOS>BOND
     1    1    2 1
     2    1    5 1
     3    1   11 1
     4    1   12 1
     5    2    3 1
     6    2   13 1
     7    2   14 1
     8    3    4 2
     9    3   17 1
    10    5    6 1
    11    5    7 1
    12    5   10 1
    13    7    8 1
    14    7   15 1
    15    7   16 1
    16    8    9 2
    17    8   18 1
@<TRIPOS>MOLECULE
ZINC02384768
   23    23     0     0     0
SMALL
USER_CHARGES
(1S,2R,3R)-3-methylcyclohex-4-ene-1,2-dicarboxylic acid
@<TRIPOS>ATOM
      1 C1         -2.7246    1.3631    1.0937 C.3       1 <0>        -0.1372
      2 C2         -1.6574    1.8094    0.0923 C.3       1 <0>        -0.0416
      3 H1         -2.0847    1.8128   -0.9104 H         1 <0>         0.0509
      4 C3         -0.5020    0.8528    0.1375 C.2       1 <0>        -0.1399
      5 C4          0.7406    1.2148    0.1145 C.2       1 <0>        -0.1255
      6 C5          1.1995    2.6424    0.0553 C.3       1 <0>        -0.0595
      7 C6          0.0506    3.5471   -0.3955 C.3       1 <0>        -0.1077
      8 H2         -0.1661    3.3669   -1.4485 H         1 <0>         0.0505
      9 C7         -1.1851    3.2212    0.4529 C.3       1 <0>        -0.1087
     10 H3         -1.9761    3.9401    0.2394 H         1 <0>         0.0603
     11 C8         -0.8260    3.2826    1.9152 C.2       1 <0>         0.4867
     12 O1         -0.2962    2.3360    2.4474 O.co2     1 <0>        -0.6604
     13 C9          0.4348    4.9907   -0.1973 C.2       1 <0>         0.4565
     14 O2         -0.2222    5.6962    0.5310 O.co2     1 <0>        -0.5914
     15 H4         -2.2994    1.3525    2.0973 H         1 <0>         0.0734
     16 H5         -3.5649    2.0567    1.0625 H         1 <0>         0.0411
     17 H6         -3.0699    0.3622    0.8348 H         1 <0>         0.0316
     18 H7         -0.7208   -0.2036    0.1879 H         1 <0>         0.0785
     19 H8          1.4940    0.4414    0.1398 H         1 <0>         0.0802
     20 H9          1.5386    2.9542    1.0431 H         1 <0>         0.0729
     21 H10         2.0234    2.7280   -0.6532 H         1 <0>         0.0527
     22 O3         -1.0948    4.3887    2.6265 O.co2     1 <0>        -0.7552
     23 O4          1.5070    5.4928   -0.8299 O.co2     1 <0>        -0.8084
@<TRIPOS>BOND
     1    1    2 1
     2    1   15 1
     3    1   16 1
     4    1   17 1
     5    2    3 1
     6    2    9 1
     7    2    4 1
     8    4    5 2
     9    4   18 1
    10    5    6 1
    11    5   19 1
    12    6    7 1
    13    6   20 1
    14    6   21 1
    15    7    8 1
    16    7    9 1
    17    7   13 1
    18    9   10 1
    19    9   11 1
    20   11   12 2
    21   11   22 1
    22   13   14 2
    23   13   23 1
@<TRIPOS>MOLECULE
ZINC22012144
   20    20     0     0     0
SMALL
USER_CHARGES
(1S,2S)-4-methylenecyclopentane-1,2-dicarboxylic acid
@<TRIPOS>ATOM
      1 C1         -3.1891    2.3381    1.5074 C.2       1 <0>        -0.2434
      2 C2         -2.2078    1.8769    0.7724 C.2       1 <0>        -0.0900
      3 C3         -0.7898    1.6107    1.2331 C.3       1 <0>        -0.0698
      4 C4         -0.0127    1.0858    0.0080 C.3       1 <0>        -0.1140
      5 H1          0.1073   -0.0076    0.0047 H         1 <0>         0.0854
      6 C5         -0.8167    1.6262   -1.2018 C.3       1 <0>        -0.1106
      7 H2         -0.5252    2.6346   -1.5307 H         1 <0>         0.0873
      8 C6         -2.2813    1.5099   -0.6992 C.3       1 <0>        -0.0685
      9 C7         -0.5942    0.7672   -2.4199 C.2       1 <0>         0.4769
     10 O1          0.1346   -0.1944   -2.3561 O.co2     1 <0>        -0.6386
     11 O2         -1.2056    1.0704   -3.5757 O.co2     1 <0>        -0.7974
     12 C8          1.3914    1.6330   -0.0025 C.2       1 <0>         0.4765
     13 O3          1.7518    2.3549   -0.9018 O.co2     1 <0>        -0.6374
     14 O4          2.2417    1.3183    0.9873 O.co2     1 <0>        -0.7980
     15 H3         -3.0188    2.5708    2.5689 H         1 <0>         0.0915
     16 H4         -4.1834    2.4927    1.0631 H         1 <0>         0.0921
     17 H5         -0.3443    2.5445    1.6068 H         1 <0>         0.0665
     18 H6         -0.8005    0.8615    2.0385 H         1 <0>         0.0627
     19 H7         -2.6708    0.4864   -0.8028 H         1 <0>         0.0685
     20 H8         -2.9506    2.2112   -1.2190 H         1 <0>         0.0603
@<TRIPOS>BOND
     1    1    2 2
     2    1   15 1
     3    1   16 1
     4    2    8 1
     5    2    3 1
     6    3    4 1
     7    3   17 1
     8    3   18 1
     9    4    5 1
    10    4    6 1
    11    4   12 1
    12    6    7 1
    13    6    8 1
    14    6    9 1
    15    8   19 1
    16    8   20 1
    17    9   10 2
    18    9   11 1
    19   12   13 2
    20   12   14 1
@<TRIPOS>MOLECULE
ZINC50888641
   20    21     0     0     0
SMALL
USER_CHARGES

@<TRIPOS>ATOM
      1 C1         -1.4971    1.2435    0.4631 C.3       1 <0>        -0.1123
      2 C2         -0.3534    2.1697    0.9022 C.2       1 <0>        -0.1985
      3 C3          0.7679    1.7493    0.3155 C.2       1 <0>        -0.1273
      4 C4          0.4366    0.6225   -0.5647 C.3       1 <0>        -0.2205
      5 H1          0.0833    0.9958   -1.5260 H         1 <0>         0.1330
      6 C5         -0.7337   -0.0581    0.2674 C.3       1 <0>        -0.1221
      7 H2         -0.4197   -0.5241    1.2014 H         1 <0>         0.0638
      8 C6         -0.6813   -0.9596   -0.9290 C.3       1 <0>        -0.2662
      9 C7          0.8478   -0.7995   -0.6808 C.3       1 <0>        -0.1128
     10 O1         -1.1802   -2.2790   -0.7006 O.3       1 <0>        -0.8542
     11 S1         -1.2903   -0.2101   -2.4646 S.o2      1 <0>         2.6214
     12 O2         -1.8189   -1.2629   -3.3180 O.2       1 <0>        -1.0838
     13 O3         -2.3373    0.7438   -2.1330 O.2       1 <0>        -1.0931
     14 O4         -0.1829    0.4650   -3.1234 O.3       1 <0>        -1.0968
     15 H3         -2.2493    1.1463    1.2459 H         1 <0>         0.0388
     16 H4         -1.9440    1.5834   -0.4712 H         1 <0>         0.1269
     17 H5         -0.4419    3.0145    1.5692 H         1 <0>         0.1105
     18 H6          1.7528    2.1673    0.4629 H         1 <0>         0.1020
     19 H7          1.4769   -1.0229   -1.5424 H         1 <0>         0.0394
     20 H8          1.2015   -1.2486    0.2473 H         1 <0>         0.0518
@<TRIPOS>BOND
     1    1    6 1
     2    1    2 1
     3    1   15 1
     4    1   16 1
     5    2    3 2
     6    2   17 1
     7    3    4 1
     8    3   18 1
     9    4    5 1
    10    4    9 1
    11    4    6 1
    12    6    7 1
    13    6    8 1
    14    8    9 1
    15    8   10 1
    16    8   11 1
    17    9   19 1
    18    9   20 1
    19   11   12 2
    20   11   13 2
    21   11   14 1
@<TRIPOS>MOLECULE
ZINC02025582
   19    19     0     0     0
SMALL
USER_CHARGES
2-[[5-(carboxymethylsulfanyl)-1,2,4-thiadiazol-3-yl]sulfanyl]acetic acid
@<TRIPOS>ATOM
      1 C1          0.2338    4.6269    0.0244 C.3       1 <0>        -0.1521
      2 C2          0.5414    6.1022    0.0289 C.2       1 <0>         0.4860
      3 O1          1.6890    6.4800    0.0195 O.co2     1 <0>        -0.6177
      4 S1          1.7845    3.6860    0.0042 S.3       1 <0>         0.0697
      5 C3          1.2621    2.0032    0.0008 C.2       1 <0>         0.2425
      6 N1          2.1520    1.0330   -0.0129 N.2       1 <0>        -0.5006
      7 C4          1.7231   -0.2224   -0.0156 C.2       1 <0>         0.0777
      8 S2          0.0021   -0.0041    0.0020 S.3       1 <0>         0.1475
      9 N2         -0.0211    1.7076    0.0114 N.2       1 <0>        -0.4742
     10 S3          2.6555   -1.7173   -0.0317 S.3       1 <0>         0.1357
     11 C5          1.3095   -2.9274   -0.0253 C.3       1 <0>        -0.1839
     12 C6          1.8857   -4.3198   -0.0375 C.2       1 <0>         0.4883
     13 O2          3.0835   -4.4779   -0.0494 O.co2     1 <0>        -0.6153
     14 H1         -0.3521    4.3807   -0.8611 H         1 <0>         0.0941
     15 H2         -0.3346    4.3715    0.9187 H         1 <0>         0.0941
     16 H3          0.7040   -2.7926    0.8710 H         1 <0>         0.1025
     17 H4          0.6876   -2.7837   -0.9088 H         1 <0>         0.1025
     18 O3         -0.4595    6.9964    0.0434 O.co2     1 <0>        -0.7519
     19 O4          1.0683   -5.3845   -0.0353 O.co2     1 <0>        -0.7449
@<TRIPOS>BOND
     1    1    2 1
     2    1    4 1
     3    1   14 1
     4    1   15 1
     5    2    3 2
     6    2   18 1
     7    4    5 1
     8    5    9 2
     9    5    6 1
    10    6    7 2
    11    7    8 1
    12    7   10 1
    13    8    9 1
    14   10   11 1
    15   11   12 1
    16   11   16 1
    17   11   17 1
    18   12   13 2
    19   12   19 1
@<TRIPOS>MOLECULE
ZINC16904943
   28    29     0     0     0
SMALL
USER_CHARGES
4-[(Z)-[3-(carboxymethyl)-2,4-dioxo-thiazolidin-5-ylidene]methyl]benzoic acid
@<TRIPOS>ATOM
      1 C1          3.9444    2.9434    0.7077 C.ar      1 <0>        -0.1044
      2 C2          5.2433    3.3570    0.7950 C.ar      1 <0>        -0.0791
      3 C3          5.6144    4.6081    0.2932 C.ar      1 <0>        -0.0900
      4 C4          4.6580    5.4346   -0.3042 C.ar      1 <0>        -0.0953
      5 C5          3.3597    5.0207   -0.3982 C.ar      1 <0>        -0.0969
      6 C6          2.9867    3.7679    0.1044 C.ar      1 <0>        -0.1006
      7 C7          1.5902    3.3215    0.0043 C.2       1 <0>         0.0660
      8 C8          1.2833    2.0118    0.1737 C.2       1 <0>        -0.2049
      9 C9         -0.0417    1.3571    0.2697 C.2       1 <0>         0.5633
     10 O1         -1.0763    1.9921    0.1946 O.2       1 <0>        -0.4797
     11 N1         -0.0409    0.0451    0.4359 N.am      1 <0>        -0.5519
     12 C10         1.1086   -0.6554    0.5133 C.2       1 <0>         0.5440
     13 O2          1.2535   -1.8534    0.6642 O.2       1 <0>        -0.4321
     14 S1          2.3667    0.5998    0.3418 S.3       1 <0>        -0.0546
     15 C11        -1.3189   -0.6638    0.5378 C.3       1 <0>         0.0484
     16 C12        -1.7705   -1.0855   -0.8367 C.2       1 <0>         0.4600
     17 O3         -1.0942   -0.8209   -1.8024 O.co2     1 <0>        -0.6239
     18 C13         7.0173    5.0566    0.3937 C.2       1 <0>         0.4878
     19 O4          7.3404    6.1434   -0.0425 O.co2     1 <0>        -0.6308
     20 H1          3.6572    1.9788    1.0994 H         1 <0>         0.1330
     21 H2          5.9832    2.7191    1.2555 H         1 <0>         0.1366
     22 H3          4.9459    6.4007   -0.6918 H         1 <0>         0.1315
     23 H4          2.6212    5.6590   -0.8604 H         1 <0>         0.1257
     24 H5          0.8083    4.0368   -0.2041 H         1 <0>         0.1568
     25 H6         -1.1960   -1.5459    1.1664 H         1 <0>         0.0993
     26 H7         -2.0660   -0.0043    0.9794 H         1 <0>         0.1032
     27 O5         -2.9240   -1.7549   -0.9882 O.co2     1 <0>        -0.7605
     28 O6          7.9395    4.2605    0.9693 O.co2     1 <0>        -0.7509
@<TRIPOS>BOND
     1    1    6 ar
     2    1    2 ar
     3    1   20 1
     4    2    3 ar
     5    2   21 1
     6    3    4 ar
     7    3   18 1
     8    4    5 ar
     9    4   22 1
    10    5    6 ar
    11    5   23 1
    12    6    7 1
    13    7    8 2
    14    7   24 1
    15    8   14 1
    16    8    9 1
    17    9   10 2
    18    9   11 am
    19   11   12 am
    20   11   15 1
    21   12   13 2
    22   12   14 1
    23   15   16 1
    24   15   25 1
    25   15   26 1
    26   16   17 2
    27   16   27 1
    28   18   19 2
    29   18   28 1
@<TRIPOS>MOLECULE
ZINC19946636
   23    24     0     0     0
SMALL
USER_CHARGES
1-(4-fluorophenyl)-4-hydroxy-6-oxo-pyridazine-3-carboxylic acid
@<TRIPOS>ATOM
      1 C1          4.2874    2.2735    1.0648 C.ar      1 <0>        -0.0720
      2 C2          5.4359    3.0397    1.0531 C.ar      1 <0>        -0.1452
      3 C3          5.7169    3.8517   -0.0333 C.ar      1 <0>         0.0693
      4 C4          4.8492    3.8933   -1.1122 C.ar      1 <0>        -0.1438
      5 C5          3.7022    3.1247   -1.1070 C.ar      1 <0>        -0.0849
      6 C6          3.4187    2.3093   -0.0187 C.ar      1 <0>         0.1722
      7 N1          2.2569    1.5296   -0.0113 N.am      1 <0>        -0.3508
      8 C7          2.3588    0.2277    0.3046 C.2       1 <0>         0.4953
      9 O1          3.4493   -0.2478    0.5774 O.2       1 <0>        -0.6193
     10 C8          1.2158   -0.5883    0.3227 C.2       1 <0>        -0.4810
     11 C9          0.0019   -0.0038    0.0067 C.2       1 <0>         0.3098
     12 C10         0.0050    1.4254   -0.3230 C.2       1 <0>         0.0246
     13 N2          1.1414    2.0884   -0.3067 N.2       1 <0>        -0.2103
     14 C11        -1.2531    2.1116   -0.6754 C.2       1 <0>         0.5215
     15 O2         -2.2983    1.4924   -0.6935 O.co2     1 <0>        -0.5963
     16 O3         -1.2427    3.4247   -0.9771 O.co2     1 <0>        -0.7636
     17 O4         -1.1444   -0.7236    0.0016 O.3       1 <0>        -0.6373
     18 F1          6.8386    4.6046   -0.0405 F         1 <0>        -0.1510
     19 H1          4.0664    1.6439    1.9140 H         1 <0>         0.1371
     20 H2          6.1136    3.0091    1.8934 H         1 <0>         0.1324
     21 H3          5.0699    4.5276   -1.9580 H         1 <0>         0.1339
     22 H4          3.0258    3.1577   -1.9483 H         1 <0>         0.1401
     23 H5          1.2821   -1.6365    0.5743 H         1 <0>         0.1194
@<TRIPOS>BOND
     1    1    6 ar
     2    1    2 ar
     3    1   19 1
     4    2    3 ar
     5    2   20 1
     6    3    4 ar
     7    3   18 1
     8    4    5 ar
     9    4   21 1
    10    5    6 ar
    11    5   22 1
    12    6    7 1
    13    7   13 1
    14    7    8 am
    15    8    9 2
    16    8   10 1
    17   10   11 2
    18   10   23 1
    19   11   12 1
    20   11   17 1
    21   12   13 2
    22   12   14 1
    23   14   15 2
    24   14   16 1
@<TRIPOS>MOLECULE
ZINC13277818
   51    55     0     0     0
SMALL
USER_CHARGES

@<TRIPOS>ATOM
      1 C1         -0.0167    1.3787    0.0096 C.ar      1 <0>        -0.0908
      2 C2          1.1688    2.0870    0.0021 C.ar      1 <0>        -0.1537
      3 C3          2.3812    1.4088   -0.0131 C.ar      1 <0>         0.1592
      4 C4          2.3964    0.0196   -0.0206 C.ar      1 <0>        -0.1498
      5 C5          1.2071   -0.6823   -0.0130 C.ar      1 <0>        -0.0917
      6 C6          0.0021   -0.0041    0.0020 C.ar      1 <0>        -0.0516
      7 C7         -1.2936   -0.7735    0.0107 C.3       1 <0>        -0.1507
      8 C8         -1.7396   -1.0224   -1.4071 C.2       1 <0>         0.4957
      9 O1         -1.0676   -0.6129   -2.3383 O.co2     1 <0>        -0.6832
     10 O2         -2.7724   -1.6333   -1.6230 O.co2     1 <0>        -0.7131
     11 N1          3.5827    2.1223   -0.0212 N.am      1 <0>        -0.5421
     12 C9          4.9306    1.5423   -0.0430 C.3       1 <0>         0.2477
     13 H1          5.0664    0.9440   -0.9440 H         1 <0>         0.0803
     14 C10         5.8917    2.7081   -0.0440 C.2       1 <0>        -0.4799
     15 C11         5.1380    3.8358   -0.0243 C.2       1 <0>         0.2923
     16 C12         3.7073    3.4618   -0.0161 C.2       1 <0>         0.5029
     17 O3          2.7811    4.2481   -0.0041 O.2       1 <0>        -0.5122
     18 O4          5.6179    5.0994   -0.0178 O.3       1 <0>        -0.6007
     19 C13         7.3043    2.6373   -0.0615 C.2       1 <0>         0.4509
     20 O5          7.9632    3.6567   -0.0602 O.2       1 <0>        -0.5101
     21 C14         7.9914    1.2961   -0.0819 C.3       1 <0>        -0.1993
     22 C15         9.1989    1.1070    0.8384 C.3       1 <0>        -0.1573
     23 C16         9.4012    1.2335   -0.6729 C.3       1 <0>        -0.1652
     24 C17         5.1481    0.6910    1.1813 C.ar      1 <0>        -0.0533
     25 C18         4.6379    1.0938    2.4014 C.ar      1 <0>        -0.0845
     26 C19         4.8364    0.3165    3.5267 C.ar      1 <0>        -0.1087
     27 C20         5.5480   -0.8705    3.4346 C.ar      1 <0>         0.0377
     28 C21         6.0588   -1.2767    2.2076 C.ar      1 <0>         0.0495
     29 C22         5.8523   -0.4939    1.0813 C.ar      1 <0>        -0.1062
     30 O6          6.7533   -2.4416    2.0934 O.3       1 <0>        -0.3077
     31 C23         7.2540   -3.0139    3.3065 C.3       1 <0>         0.0225
     32 C24         6.1300   -2.9859    4.3510 C.3       1 <0>         0.0213
     33 O7          5.7389   -1.6234    4.5522 O.3       1 <0>        -0.3109
     34 H2         -0.9595    1.9053    0.0260 H         1 <0>         0.1138
     35 H3          1.1535    3.1668    0.0077 H         1 <0>         0.1446
     36 H4          3.3371   -0.5107   -0.0328 H         1 <0>         0.1168
     37 H5          1.2182   -1.7623   -0.0189 H         1 <0>         0.1125
     38 H6         -1.1466   -1.7270    0.5180 H         1 <0>         0.0637
     39 H7         -2.0553   -0.1966    0.5352 H         1 <0>         0.0643
     40 H8          7.3402    0.4367   -0.2413 H         1 <0>         0.1152
     41 H9          9.4965    1.9525    1.4585 H         1 <0>         0.0925
     42 H10         9.3423    0.1229    1.2847 H         1 <0>         0.0875
     43 H11         9.6776    0.3327   -1.2208 H         1 <0>         0.0888
     44 H12         9.8318    2.1623   -1.0470 H         1 <0>         0.0969
     45 H13         4.0835    2.0178    2.4754 H         1 <0>         0.1259
     46 H14         4.4373    0.6337    4.4788 H         1 <0>         0.1292
     47 H15         6.2461   -0.8084    0.1261 H         1 <0>         0.1351
     48 H16         7.5633   -4.0436    3.1269 H         1 <0>         0.1148
     49 H17         8.1031   -2.4317    3.6646 H         1 <0>         0.0728
     50 H18         5.2786   -3.5632    3.9905 H         1 <0>         0.0742
     51 H19         6.4897   -3.4076    5.2896 H         1 <0>         0.1140
@<TRIPOS>BOND
     1    1    6 ar
     2    1    2 ar
     3    1   34 1
     4    2    3 ar
     5    2   35 1
     6    3    4 ar
     7    3   11 1
     8    4    5 ar
     9    4   36 1
    10    5    6 ar
    11    5   37 1
    12    6    7 1
    13    7    8 1
    14    7   38 1
    15    7   39 1
    16    8    9 2
    17    8   10 1
    18   11   16 am
    19   11   12 1
    20   12   13 1
    21   12   14 1
    22   12   24 1
    23   14   15 2
    24   14   19 1
    25   15   16 1
    26   15   18 1
    27   16   17 2
    28   19   20 2
    29   19   21 1
    30   21   23 1
    31   21   22 1
    32   21   40 1
    33   22   23 1
    34   22   41 1
    35   22   42 1
    36   23   43 1
    37   23   44 1
    38   24   29 ar
    39   24   25 ar
    40   25   26 ar
    41   25   45 1
    42   26   27 ar
    43   26   46 1
    44   27   33 1
    45   27   28 ar
    46   28   29 ar
    47   28   30 1
    48   29   47 1
    49   30   31 1
    50   31   32 1
    51   31   48 1
    52   31   49 1
    53   32   33 1
    54   32   50 1
    55   32   51 1
@<TRIPOS>MOLECULE
ZINC47144968
   48    51     0     0     0
SMALL
USER_CHARGES

@<TRIPOS>ATOM
      1 C1         -0.0187    1.5258    0.0104 C.3       1 <0>        -0.1391
      2 C2          0.0021   -0.0041    0.0020 C.3       1 <0>        -0.0303
      3 C3          0.7421   -0.5109    1.2415 C.3       1 <0>        -0.1378
      4 C4         -1.4333   -0.5336    0.0129 C.3       1 <0>        -0.1454
      5 C5          0.7074   -0.4901   -1.2379 C.ar      1 <0>        -0.0635
      6 C6          0.0361   -1.2843   -2.1485 C.ar      1 <0>        -0.1156
      7 C7          0.6831   -1.7301   -3.2859 C.ar      1 <0>        -0.0944
      8 C8          2.0014   -1.3813   -3.5127 C.ar      1 <0>        -0.0890
      9 C9          2.6724   -0.5863   -2.6025 C.ar      1 <0>        -0.0944
     10 C10         2.0241   -0.1370   -1.4673 C.ar      1 <0>        -0.1123
     11 C11         2.7070   -1.8681   -4.7521 C.3       1 <0>         0.0424
     12 H1          2.0034   -2.4723   -5.3248 H         1 <0>         0.1005
     13 C12         3.8257   -2.7393   -4.3322 C.2       1 <0>        -0.1920
     14 C13         5.0720   -2.8351   -4.8322 C.2       1 <0>         0.0864
     15 N1          5.8712   -3.7859   -4.2453 N.am      1 <0>        -0.6358
     16 H2          6.7731   -3.9313   -4.5713 H         1 <0>         0.4124
     17 C14         5.4001   -4.5149   -3.2165 C.2       1 <0>         0.4715
     18 O1          5.9715   -5.3837   -2.5815 O.2       1 <0>        -0.4681
     19 S1          3.8333   -3.9379   -3.0188 S.3       1 <0>         0.0823
     20 S2          5.5983   -1.7525   -6.1371 S.3       1 <0>         0.0501
     21 C15         4.0909   -0.9773   -6.7026 C.3       1 <0>        -0.1485
     22 H3          4.3615   -0.0374   -7.1839 H         1 <0>         0.1748
     23 C16         3.0825   -0.6510   -5.5938 C.3       1 <0>        -0.0891
     24 H4          3.3577    0.2178   -4.9959 H         1 <0>         0.1511
     25 C17         1.8474   -0.4535   -6.5021 C.2       1 <0>         0.5355
     26 O2          0.9085    0.2853   -6.2967 O.2       1 <0>        -0.4472
     27 N2          2.0174   -1.2631   -7.5679 N.am      1 <0>        -0.5453
     28 C18         3.2661   -1.7605   -7.6783 C.2       1 <0>         0.5511
     29 O3          3.6433   -2.6432   -8.4187 O.2       1 <0>        -0.4541
     30 C19         0.9412   -1.5846   -8.5085 C.3       1 <0>         0.0278
     31 C20         0.9318   -0.5732   -9.6257 C.2       1 <0>         0.4891
     32 O4          1.7483    0.3322   -9.6353 O.co2     1 <0>        -0.6834
     33 O5          0.1076   -0.6603  -10.5199 O.co2     1 <0>        -0.6861
     34 H5          1.0039    1.9031    0.0027 H         1 <0>         0.0571
     35 H6         -0.5459    1.8868   -0.8726 H         1 <0>         0.0584
     36 H7         -0.5289    1.8773    0.9072 H         1 <0>         0.0567
     37 H8          0.2319   -0.1594    2.1383 H         1 <0>         0.0566
     38 H9          0.7568   -1.6008    1.2356 H         1 <0>         0.0567
     39 H10         1.7647   -0.1336    1.2338 H         1 <0>         0.0569
     40 H11        -1.9605   -0.1726   -0.8702 H         1 <0>         0.0603
     41 H12        -1.4185   -1.6235    0.0069 H         1 <0>         0.0588
     42 H13        -1.9435   -0.1821    0.9097 H         1 <0>         0.0567
     43 H14        -0.9938   -1.5568   -1.9713 H         1 <0>         0.1277
     44 H15         0.1588   -2.3512   -3.9970 H         1 <0>         0.1213
     45 H16         3.7024   -0.3141   -2.7796 H         1 <0>         0.1224
     46 H17         2.5473    0.4872   -0.7580 H         1 <0>         0.1217
     47 H18         1.1046   -2.5802   -8.9211 H         1 <0>         0.0944
     48 H19        -0.0160   -1.5597   -7.9878 H         1 <0>         0.0908
@<TRIPOS>BOND
     1    1    2 1
     2    1   34 1
     3    1   35 1
     4    1   36 1
     5    2    3 1
     6    2    4 1
     7    2    5 1
     8    3   37 1
     9    3   38 1
    10    3   39 1
    11    4   40 1
    12    4   41 1
    13    4   42 1
    14    5   10 ar
    15    5    6 ar
    16    6    7 ar
    17    6   43 1
    18    7    8 ar
    19    7   44 1
    20    8    9 ar
    21    8   11 1
    22    9   10 ar
    23    9   45 1
    24   10   46 1
    25   11   12 1
    26   11   23 1
    27   11   13 1
    28   13   19 1
    29   13   14 2
    30   14   15 1
    31   14   20 1
    32   15   16 1
    33   15   17 am
    34   17   18 2
    35   17   19 1
    36   20   21 1
    37   21   22 1
    38   21   28 1
    39   21   23 1
    40   23   24 1
    41   23   25 1
    42   25   26 2
    43   25   27 am
    44   27   28 am
    45   27   30 1
    46   28   29 2
    47   30   31 1
    48   30   47 1
    49   30   48 1
    50   31   32 2
    51   31   33 1
@<TRIPOS>MOLECULE
ZINC62824209
   30    30     0     0     0
SMALL
USER_CHARGES

@<TRIPOS>ATOM
      1 C1         -0.0173    1.4248    0.0099 C.3       1 <0>         0.0331
      2 O1          0.0021   -0.0041    0.0020 O.3       1 <0>        -0.3597
      3 C2         -1.1855   -0.6297    0.0100 C.2       1 <0>         0.4656
      4 O2         -2.2076    0.0145    0.0232 O.2       1 <0>        -0.4930
      5 C3         -1.2439   -2.1355    0.0025 C.3       1 <0>        -0.1008
      6 C4         -2.7051   -2.5893    0.0140 C.3       1 <0>        -0.5862
      7 S1         -2.7754   -4.4019    0.0049 S.o2      1 <0>         2.4939
      8 O3         -2.3013   -4.9039   -1.2370 O.2       1 <0>        -1.0342
      9 O4         -2.2777   -4.9171    1.2321 O.2       1 <0>        -1.0342
     10 N1         -4.3910   -4.7651    0.0184 N.2       1 <0>        -0.9951
     11 C5         -4.8043   -6.0895    0.0152 C.ar      1 <0>         0.3203
     12 C6         -3.8656   -7.1144    0.0066 C.ar      1 <0>        -0.2775
     13 C7         -4.2787   -8.4302    0.0039 C.ar      1 <0>        -0.0381
     14 C8         -5.6302   -8.7430    0.0098 C.ar      1 <0>        -0.2064
     15 C9         -6.5763   -7.7424    0.0180 C.ar      1 <0>        -0.0160
     16 C10        -6.1742   -6.4021    0.0266 C.ar      1 <0>        -0.1971
     17 C11        -7.1784   -5.3281    0.0414 C.2       1 <0>         0.5308
     18 O5         -8.3702   -5.6050    0.0513 O.co2     1 <0>        -0.7356
     19 O6         -6.8222   -4.1575    0.0439 O.co2     1 <0>        -0.6528
     20 I1         -6.2354  -10.7487    0.0057 I         1 <0>        -0.1293
     21 H1          1.0053    1.8021    0.0021 H         1 <0>         0.0967
     22 H2         -0.5445    1.7859   -0.8732 H         1 <0>         0.0582
     23 H3         -0.5275    1.7763    0.9067 H         1 <0>         0.0582
     24 H4         -0.7531   -2.5137   -0.8943 H         1 <0>         0.1140
     25 H5         -0.7361   -2.5233    0.8856 H         1 <0>         0.1140
     26 H6         -3.1959   -2.2111    0.9107 H         1 <0>         0.1307
     27 H7         -3.2129   -2.2015   -0.8691 H         1 <0>         0.1307
     28 H8         -2.8114   -6.8801    0.0016 H         1 <0>         0.0998
     29 H9         -3.5450   -9.2227   -0.0032 H         1 <0>         0.0957
     30 H10        -7.6272   -7.9917    0.0219 H         1 <0>         0.1141
@<TRIPOS>BOND
     1    1    2 1
     2    1   21 1
     3    1   22 1
     4    1   23 1
     5    2    3 1
     6    3    4 2
     7    3    5 1
     8    5    6 1
     9    5   24 1
    10    5   25 1
    11    6    7 1
    12    6   26 1
    13    6   27 1
    14    7    8 2
    15    7    9 2
    16    7   10 1
    17   10   11 1
    18   11   16 ar
    19   11   12 ar
    20   12   13 ar
    21   12   28 1
    22   13   14 ar
    23   13   29 1
    24   14   15 ar
    25   14   20 1
    26   15   16 ar
    27   15   30 1
    28   16   17 1
    29   17   18 2
    30   17   19 1
@<TRIPOS>MOLECULE
ZINC01557933
   24    23     0     0     0
SMALL
USER_CHARGES
2,3-bis(acetylsulfanyl)butanedioic acid
@<TRIPOS>ATOM
      1 C1         -1.9172    1.5550   -4.0759 C.3       1 <0>        -0.1599
      2 C2         -1.6982    1.3797   -2.5952 C.2       1 <0>         0.2992
      3 O1         -1.6066    0.2657   -2.1233 O.2       1 <0>        -0.4334
      4 S1         -1.5787    2.7524   -1.5791 S.3       1 <0>        -0.1025
      5 C3         -1.3295    1.9397    0.0189 C.3       1 <0>        -0.0682
      6 H1         -2.1398    1.2329    0.1974 H         1 <0>         0.1050
      7 C4         -1.3167    2.9919    1.1296 C.3       1 <0>        -0.0688
      8 H2         -0.5064    3.6988    0.9511 H         1 <0>         0.1049
      9 C5         -2.6319    3.7276    1.1398 C.2       1 <0>         0.4797
     10 O2         -2.6483    4.9357    1.1465 O.co2     1 <0>        -0.6130
     11 S2         -1.0675    2.1793    2.7276 S.3       1 <0>        -0.1018
     12 C6         -0.9479    3.5520    3.7437 C.2       1 <0>         0.2987
     13 O3         -1.0395    4.6659    3.2718 O.2       1 <0>        -0.4341
     14 C7         -0.7289    3.3766    5.2244 C.3       1 <0>        -0.1578
     15 C8         -0.0143    1.2041    0.0087 C.2       1 <0>         0.4794
     16 O4          0.0021   -0.0041    0.0020 O.co2     1 <0>        -0.6131
     17 H3         -1.0328    1.6129   -4.5391 H         1 <0>         0.0818
     18 H4         -2.4755    0.7031   -4.4640 H         1 <0>         0.0823
     19 H5         -2.4813    2.4706   -4.2538 H         1 <0>         0.0828
     20 H6         -0.6773    2.4016    5.4405 H         1 <0>         0.0711
     21 H7          0.2027    3.8627    5.5139 H         1 <0>         0.0870
     22 H8         -1.5584    3.8264    5.7701 H         1 <0>         0.0874
     23 O5         -3.7851    3.0407    1.1416 O.co2     1 <0>        -0.7533
     24 O6          1.1389    1.8910    0.0013 O.co2     1 <0>        -0.7534
@<TRIPOS>BOND
     1    1    2 1
     2    1   17 1
     3    1   18 1
     4    1   19 1
     5    2    3 2
     6    2    4 1
     7    4    5 1
     8    5    6 1
     9    5    7 1
    10    5   15 1
    11    7    8 1
    12    7    9 1
    13    7   11 1
    14    9   10 2
    15    9   23 1
    16   11   12 1
    17   12   13 2
    18   12   14 1
    19   14   20 1
    20   14   21 1
    21   14   22 1
    22   15   16 2
    23   15   24 1
@<TRIPOS>MOLECULE
ZINC16937667
   41    42     0     0     0
SMALL
USER_CHARGES
(2R)-2-[4-[(Z)-[3-(2-carboxyethyl)-4-oxo-2-thioxo-thiazolidin-5-ylidene]methyl]phenoxy]butanoic acid
@<TRIPOS>ATOM
      1 C1          0.2005    4.0166    3.2102 C.3       1 <0>        -0.1498
      2 C2          0.4705    3.6571    1.7477 C.3       1 <0>        -0.1037
      3 C3          1.6487    2.6841    1.6708 C.3       1 <0>         0.0360
      4 H1          2.5109    3.1167    2.1783 H         1 <0>         0.0777
      5 C4          1.9933    2.4256    0.2267 C.2       1 <0>         0.4480
      6 O1          1.8526    1.3198   -0.2394 O.co2     1 <0>        -0.6149
      7 O2          1.2919    1.4532    2.3031 O.3       1 <0>        -0.2853
      8 C5          2.2987    0.7309    2.8581 C.ar      1 <0>         0.1961
      9 C6          2.0072   -0.4133    3.5917 C.ar      1 <0>        -0.1633
     10 C7          3.0244   -1.1527    4.1519 C.ar      1 <0>        -0.0407
     11 C8          4.3541   -0.7438    3.9912 C.ar      1 <0>        -0.1626
     12 C9          4.6416    0.4129    3.2560 C.ar      1 <0>        -0.0260
     13 C10         3.6168    1.1415    2.6954 C.ar      1 <0>        -0.2139
     14 C11         5.4430   -1.5252    4.5911 C.2       1 <0>         0.1100
     15 C12         5.1584   -2.5448    5.4408 C.2       1 <0>        -0.2646
     16 C13         6.0543   -3.5666    6.0185 C.2       1 <0>         0.5436
     17 O3          7.2439   -3.5926    5.7622 O.2       1 <0>        -0.4596
     18 N1          5.4987   -4.4523    6.8282 N.am      1 <0>        -0.5159
     19 C14         4.1802   -4.4202    7.1093 C.2       1 <0>         0.2748
     20 S1          3.2833   -5.4685    8.1231 S.2       1 <0>        -0.3731
     21 S2          3.5975   -3.0149    6.1744 S.3       1 <0>         0.0621
     22 C15         6.3345   -5.4923    7.4332 C.3       1 <0>         0.1007
     23 C16         6.8868   -4.9900    8.7687 C.3       1 <0>        -0.1665
     24 C17         7.7465   -6.0598    9.3911 C.2       1 <0>         0.4745
     25 O4          7.9016   -7.1157    8.8246 O.co2     1 <0>        -0.6372
     26 H2          1.0868    4.4845    3.6389 H         1 <0>         0.0505
     27 H3         -0.0386    3.1116    3.7686 H         1 <0>         0.0570
     28 H4         -0.6389    4.7098    3.2650 H         1 <0>         0.0525
     29 H5         -0.4158    3.1892    1.3191 H         1 <0>         0.0681
     30 H6          0.7096    4.5621    1.1893 H         1 <0>         0.0889
     31 H7          0.9810   -0.7251    3.7189 H         1 <0>         0.1377
     32 H8          2.7972   -2.0442    4.7176 H         1 <0>         0.1334
     33 H9          5.6653    0.7326    3.1287 H         1 <0>         0.1339
     34 H10         3.8373    2.0335    2.1279 H         1 <0>         0.1388
     35 H11         6.4703   -1.2888    4.3562 H         1 <0>         0.1590
     36 H12         5.7358   -6.3875    7.6013 H         1 <0>         0.1137
     37 H13         7.1616   -5.7288    6.7639 H         1 <0>         0.1034
     38 H14         7.4855   -4.0948    8.6007 H         1 <0>         0.0683
     39 H15         6.0597   -4.7535    9.4381 H         1 <0>         0.0750
     40 O5          2.4567    3.4239   -0.5417 O.co2     1 <0>        -0.7585
     41 O6          8.3400   -5.8397   10.5748 O.co2     1 <0>        -0.7679
@<TRIPOS>BOND
     1    1    2 1
     2    1   26 1
     3    1   27 1
     4    1   28 1
     5    2    3 1
     6    2   29 1
     7    2   30 1
     8    3    4 1
     9    3    5 1
    10    3    7 1
    11    5    6 2
    12    5   40 1
    13    7    8 1
    14    8   13 ar
    15    8    9 ar
    16    9   10 ar
    17    9   31 1
    18   10   11 ar
    19   10   32 1
    20   11   12 ar
    21   11   14 1
    22   12   13 ar
    23   12   33 1
    24   13   34 1
    25   14   15 2
    26   14   35 1
    27   15   21 1
    28   15   16 1
    29   16   17 2
    30   16   18 am
    31   18   19 1
    32   18   22 1
    33   19   20 2
    34   19   21 1
    35   22   23 1
    36   22   36 1
    37   22   37 1
    38   23   24 1
    39   23   38 1
    40   23   39 1
    41   24   25 2
    42   24   41 1
@<TRIPOS>MOLECULE
ZINC16712689
   38    41     0     0     0
SMALL
USER_CHARGES

@<TRIPOS>ATOM
      1 C1         -0.0181    1.5028    0.0089 C.3       1 <0>        -0.1057
      2 C2          0.0023   -0.0041    0.0010 C.ar      1 <0>        -0.0956
      3 C3          0.5146   -0.6827   -1.0889 C.ar      1 <0>        -0.1356
      4 C4          0.5333   -2.0649   -1.0961 C.ar      1 <0>        -0.1169
      5 C5          0.0400   -2.7685   -0.0132 C.ar      1 <0>        -0.0705
      6 C6         -0.4715   -2.0898    1.0771 C.ar      1 <0>        -0.0320
      7 C7         -0.4862   -0.7076    1.0861 C.ar      1 <0>        -0.1206
      8 C8          0.0595   -4.2753   -0.0215 C.3       1 <0>         0.0879
      9 H1         -0.0321   -4.6110   -1.0545 H         1 <0>         0.0846
     10 C9         -1.1223   -4.7600    0.7317 C.2       1 <0>        -0.3191
     11 C10        -1.1863   -5.7256    1.6888 C.2       1 <0>         0.1548
     12 N1         -2.4140   -5.9702    2.1542 N.2       1 <0>        -0.6361
     13 C11        -3.4628   -5.3009    1.7367 C.2       1 <0>         0.4288
     14 O1         -4.7556   -5.4363    2.1206 O.3       1 <0>        -0.6384
     15 S1         -2.8129   -4.2327    0.6086 S.3       1 <0>        -0.1012
     16 S2          0.2783   -6.5477    2.2572 S.3       1 <0>        -0.0004
     17 C12         1.5114   -6.1783    0.9687 C.3       1 <0>        -0.1173
     18 H2          1.5246   -6.9126    0.1633 H         1 <0>         0.1444
     19 C13         1.3717   -4.7263    0.4994 C.3       1 <0>        -0.1098
     20 H3          2.0586   -4.6487   -0.3434 H         1 <0>         0.1053
     21 C14         2.0373   -3.9404    1.5852 C.2       1 <0>         0.5508
     22 O2          1.8066   -2.7935    1.9030 O.2       1 <0>        -0.4466
     23 N2          2.9496   -4.7730    2.1401 N.am      1 <0>        -0.5446
     24 C15         2.8524   -6.0502    1.7134 C.2       1 <0>         0.5582
     25 O3          3.6637   -6.9333    1.8909 O.2       1 <0>        -0.4822
     26 C16         3.9563   -4.3264    3.1062 C.3       1 <0>         0.0319
     27 C17         3.4021   -4.4493    4.5022 C.2       1 <0>         0.4829
     28 O4          2.2710   -4.8708    4.6742 O.co2     1 <0>        -0.6560
     29 O5          4.0847   -4.1271    5.4597 O.co2     1 <0>        -0.7042
     30 H4          0.9115    1.8765    0.4382 H         1 <0>         0.0625
     31 H5         -0.1201    1.8701   -1.0122 H         1 <0>         0.0570
     32 H6         -0.8603    1.8517    0.6064 H         1 <0>         0.0600
     33 H7          0.9000   -0.1330   -1.9349 H         1 <0>         0.1092
     34 H8          0.9329   -2.5951   -1.9479 H         1 <0>         0.1118
     35 H9         -0.8571   -2.6395    1.9230 H         1 <0>         0.1209
     36 H10        -0.8824   -0.1773    1.9395 H         1 <0>         0.1124
     37 H11         4.8485   -4.9457    3.0138 H         1 <0>         0.0857
     38 H12         4.2139   -3.2861    2.9079 H         1 <0>         0.0839
@<TRIPOS>BOND
     1    1    2 1
     2    1   30 1
     3    1   31 1
     4    1   32 1
     5    2    7 ar
     6    2    3 ar
     7    3    4 ar
     8    3   33 1
     9    4    5 ar
    10    4   34 1
    11    5    6 ar
    12    5    8 1
    13    6    7 ar
    14    6   35 1
    15    7   36 1
    16    8    9 1
    17    8   19 1
    18    8   10 1
    19   10   15 1
    20   10   11 2
    21   11   12 1
    22   11   16 1
    23   12   13 2
    24   13   14 1
    25   13   15 1
    26   16   17 1
    27   17   18 1
    28   17   24 1
    29   17   19 1
    30   19   20 1
    31   19   21 1
    32   21   22 2
    33   21   23 am
    34   23   24 am
    35   23   26 1
    36   24   25 2
    37   26   27 1
    38   26   37 1
    39   26   38 1
    40   27   28 2
    41   27   29 1
@<TRIPOS>MOLECULE
ZINC38567620
   29    30     0     0     0
SMALL
USER_CHARGES

@<TRIPOS>ATOM
      1 C1         -0.0178    1.4592    0.0101 C.2       1 <0>        -0.1955
      2 C2          1.2319    1.9202    0.0006 C.2       1 <0>        -0.1317
      3 C3          2.1251    0.6993   -0.0145 C.3       1 <0>         0.0645
      4 H1          2.7564    0.6826    0.8739 H         1 <0>         0.1327
      5 N1          1.2133   -0.4519   -0.0120 N.2       1 <0>        -0.4571
      6 C4          0.0021   -0.0041    0.0020 C.2       1 <0>         0.1281
      7 C5          2.9758    0.6906   -1.2583 C.2       1 <0>        -0.0123
      8 C6          4.3074    0.6038   -1.1576 C.2       1 <0>        -0.1517
      9 C7          5.3381    0.5837   -2.2256 C.2       1 <0>         0.5478
     10 O1          5.0421    0.6502   -3.4031 O.2       1 <0>        -0.4528
     11 N2          6.5958    0.4900   -1.8275 N.am      1 <0>        -0.4679
     12 C8          6.9190    0.4169   -0.5207 C.2       1 <0>         0.2723
     13 S1          8.4749    0.2928    0.1828 S.2       1 <0>        -0.2305
     14 S2          5.3352    0.4880    0.3004 S.3       1 <0>        -0.0453
     15 C9          7.6633    0.4645   -2.8305 C.3       1 <0>         0.0752
     16 H2          7.2270    0.5316   -3.8271 H         1 <0>         0.1027
     17 C10         8.4499   -0.8418   -2.7050 C.3       1 <0>        -0.1985
     18 C11         7.5529   -2.0033   -3.0478 C.2       1 <0>         0.4907
     19 O2          6.3921   -1.8046   -3.3632 O.co2     1 <0>        -0.6925
     20 O3          7.9881   -3.1415   -3.0097 O.co2     1 <0>        -0.7146
     21 C12         8.5897    1.6321   -2.6080 C.2       1 <0>         0.4961
     22 O4          8.7521    2.0758   -1.4840 O.co2     1 <0>        -0.6561
     23 O5          9.1768    2.1330   -3.5519 O.co2     1 <0>        -0.6921
     24 H3         -0.9079    2.0706    0.0259 H         1 <0>         0.1422
     25 H4          1.5437    2.9542    0.0029 H         1 <0>         0.1589
     26 H5         -0.8799   -0.6273    0.0071 H         1 <0>         0.1728
     27 H6          2.5109    0.7545   -2.2310 H         1 <0>         0.1483
     28 H7          9.2975   -0.8228   -3.3901 H         1 <0>         0.0728
     29 H8          8.8115   -0.9514   -1.6826 H         1 <0>         0.0935
@<TRIPOS>BOND
     1    1    6 1
     2    1    2 2
     3    1   24 1
     4    2    3 1
     5    2   25 1
     6    3    4 1
     7    3    5 1
     8    3    7 1
     9    5    6 2
    10    6   26 1
    11    7    8 2
    12    7   27 1
    13    8   14 1
    14    8    9 1
    15    9   10 2
    16    9   11 am
    17   11   12 1
    18   11   15 1
    19   12   13 2
    20   12   14 1
    21   15   16 1
    22   15   17 1
    23   15   21 1
    24   17   18 1
    25   17   28 1
    26   17   29 1
    27   18   19 2
    28   18   20 1
    29   21   22 2
    30   21   23 1
@<TRIPOS>MOLECULE
ZINC62720733
   22    21     0     0     0
SMALL
USER_CHARGES

@<TRIPOS>ATOM
      1 C1         -0.0184    1.5028    0.0103 C.3       1 <0>        -0.1965
      2 C2          0.0021   -0.0041    0.0020 C.2       1 <0>         0.3787
      3 O1          0.0202   -0.6134    1.0444 O.2       1 <0>        -0.4907
      4 C3         -0.0002   -0.7505   -1.3071 C.3       1 <0>        -0.1720
      5 H1          0.5747   -0.1912   -2.0452 H         1 <0>         0.0826
      6 C4          0.6302   -2.1304   -1.1086 C.3       1 <0>        -0.1784
      7 H2          0.0553   -2.6896   -0.3705 H         1 <0>         0.0964
      8 C5          2.0482   -1.9699   -0.6243 C.2       1 <0>         0.3958
      9 O2          2.6598   -0.9583   -0.8714 O.2       1 <0>        -0.5045
     10 C6          2.7030   -3.0716    0.1685 C.3       1 <0>        -0.1824
     11 C7          0.6280   -2.8768   -2.4177 C.2       1 <0>         0.5086
     12 O3          1.5019   -3.6930   -2.6556 O.co2     1 <0>        -0.7194
     13 O4         -0.2477   -2.6644   -3.2390 O.co2     1 <0>        -0.6394
     14 C8         -1.4182   -0.9110   -1.7915 C.2       1 <0>         0.5463
     15 O5         -1.7523   -0.4410   -2.8657 O.co2     1 <0>        -0.6815
     16 O6         -2.2312   -1.5108   -1.1090 O.co2     1 <0>        -0.7072
     17 H3          1.0042    1.8801    0.0026 H         1 <0>         0.0840
     18 H4         -0.5455    1.8639   -0.8728 H         1 <0>         0.0832
     19 H5         -0.5286    1.8543    0.9071 H         1 <0>         0.0686
     20 H6          2.0021   -3.8974    0.2903 H         1 <0>         0.0760
     21 H7          3.5893   -3.4224   -0.3603 H         1 <0>         0.0807
     22 H8          2.9912   -2.6920    1.1487 H         1 <0>         0.0709
@<TRIPOS>BOND
     1    1    2 1
     2    1   17 1
     3    1   18 1
     4    1   19 1
     5    2    3 2
     6    2    4 1
     7    4    5 1
     8    4    6 1
     9    4   14 1
    10    6    7 1
    11    6    8 1
    12    6   11 1
    13    8    9 2
    14    8   10 1
    15   10   20 1
    16   10   21 1
    17   10   22 1
    18   11   12 2
    19   11   13 1
    20   14   15 2
    21   14   16 1
@<TRIPOS>MOLECULE
ZINC01594996
   39    39     0     0     0
SMALL
USER_CHARGES
2-oxo-3-[1-(3,4,5-trimethoxyphenyl)ethyl]butanedioic acid
@<TRIPOS>ATOM
      1 C1         -1.9291    0.8373    2.1796 C.3       1 <0>        -0.1433
      2 C2         -2.3810    1.0941    0.7406 C.3       1 <0>        -0.0341
      3 H1         -2.5009    0.1428    0.2221 H         1 <0>         0.0794
      4 C3         -3.6962    1.8298    0.7508 C.ar      1 <0>         0.0645
      5 C4         -3.7897    3.0661    1.3620 C.ar      1 <0>        -0.2068
      6 C5         -4.9967    3.7488    1.3687 C.ar      1 <0>         0.1475
      7 C6         -6.1161    3.1831    0.7700 C.ar      1 <0>         0.0077
      8 C7         -6.0193    1.9374    0.1615 C.ar      1 <0>         0.1464
      9 C8         -4.8072    1.2639    0.1539 C.ar      1 <0>        -0.2042
     10 O1         -7.1120    1.3795   -0.4252 O.3       1 <0>        -0.3122
     11 C9         -6.9392    0.0968   -1.0310 C.3       1 <0>         0.0272
     12 O2         -7.3040    3.8471    0.7800 O.3       1 <0>        -0.3117
     13 C10        -8.1749    3.6020    1.8862 C.3       1 <0>         0.0358
     14 O3         -5.0863    4.9676    1.9654 O.3       1 <0>        -0.3121
     15 C11        -3.8957    5.4877    2.5605 C.3       1 <0>         0.0254
     16 C12        -1.3295    1.9393    0.0189 C.3       1 <0>        -0.1638
     17 H2         -1.2196    2.8121    0.4945 H         1 <0>         0.0889
     18 C13        -0.0143    1.2036    0.0087 C.2       1 <0>         0.3593
     19 O4          0.0021   -0.0041    0.0020 O.2       1 <0>        -0.4629
     20 C14         1.2663    1.9664    0.0005 C.2       1 <0>         0.4388
     21 O5          1.2499    3.1790    0.0072 O.co2     1 <0>        -0.6116
     22 C15        -1.7746    2.1922   -1.3985 C.2       1 <0>         0.4852
     23 O6         -1.0938    1.8139   -2.3221 O.co2     1 <0>        -0.6332
     24 H3         -1.8093    1.7886    2.6980 H         1 <0>         0.0533
     25 H4         -2.6782    0.2352    2.6937 H         1 <0>         0.0510
     26 H5         -0.9778    0.3052    2.1721 H         1 <0>         0.0634
     27 H6         -2.9205    3.5028    1.8311 H         1 <0>         0.1277
     28 H7         -4.7311    0.2958   -0.3188 H         1 <0>         0.1238
     29 H8         -6.1871    0.1646   -1.8171 H         1 <0>         0.0606
     30 H9         -6.6134   -0.6201   -0.2773 H         1 <0>         0.0507
     31 H10        -7.8852   -0.2325   -1.4607 H         1 <0>         0.0914
     32 H11        -8.4310    2.5430    1.9192 H         1 <0>         0.0368
     33 H12        -7.6741    3.8838    2.8124 H         1 <0>         0.0374
     34 H13        -9.0840    4.1922    1.7706 H         1 <0>         0.0797
     35 H14        -4.1052    6.4629    2.9998 H         1 <0>         0.0924
     36 H15        -3.5501    4.8058    3.3375 H         1 <0>         0.0519
     37 H16        -3.1236    5.5909    1.7980 H         1 <0>         0.0629
     38 O7          2.4409    1.3094   -0.0142 O.co2     1 <0>        -0.7433
     39 O8         -2.9275    2.8378   -1.6348 O.co2     1 <0>        -0.7500
@<TRIPOS>BOND
     1    1    2 1
     2    1   24 1
     3    1   25 1
     4    1   26 1
     5    2    3 1
     6    2    4 1
     7    2   16 1
     8    4    9 ar
     9    4    5 ar
    10    5    6 ar
    11    5   27 1
    12    6    7 ar
    13    6   14 1
    14    7    8 ar
    15    7   12 1
    16    8    9 ar
    17    8   10 1
    18    9   28 1
    19   10   11 1
    20   11   29 1
    21   11   30 1
    22   11   31 1
    23   12   13 1
    24   13   32 1
    25   13   33 1
    26   13   34 1
    27   14   15 1
    28   15   35 1
    29   15   36 1
    30   15   37 1
    31   16   17 1
    32   16   18 1
    33   16   22 1
    34   18   19 2
    35   18   20 1
    36   20   21 2
    37   20   38 1
    38   22   23 2
    39   22   39 1
@<TRIPOS>MOLECULE
ZINC25495088
   22    22     0     0     0
SMALL
USER_CHARGES
4-methoxy-3-oxalo-benzoic acid
@<TRIPOS>ATOM
      1 C1          2.3051   -0.3067   -0.0772 C.3       1 <0>         0.0235
      2 O1          2.3632    1.1209   -0.0514 O.3       1 <0>        -0.2898
      3 C2          1.1829    1.7838   -0.0217 C.ar      1 <0>         0.1634
      4 C3         -0.0122    1.0755   -0.0175 C.ar      1 <0>        -0.2558
      5 C4         -1.2149    1.7441    0.0063 C.ar      1 <0>        -0.0169
      6 C5         -1.2451    3.1448    0.0382 C.ar      1 <0>        -0.1805
      7 C6         -0.0556    3.8677    0.0344 C.ar      1 <0>         0.0044
      8 C7          1.1659    3.1910    0.0044 C.ar      1 <0>        -0.2123
      9 C8          2.4285    3.9453    0.0005 C.2       1 <0>         0.3625
     10 O2          3.4873    3.3570    0.0820 O.2       1 <0>        -0.4448
     11 C9          2.4080    5.4341   -0.1034 C.2       1 <0>         0.4373
     12 O3          1.3510    6.0284   -0.0903 O.co2     1 <0>        -0.5890
     13 O4          3.5624    6.1169   -0.2117 O.co2     1 <0>        -0.7335
     14 C10        -2.5385    3.8538    0.0704 C.2       1 <0>         0.4975
     15 O5         -2.5651    5.0683    0.0935 O.co2     1 <0>        -0.6230
     16 O6         -3.6902    3.1545    0.0741 O.co2     1 <0>        -0.7753
     17 H1          3.3263   -0.7149   -0.0998 H         1 <0>         0.0916
     18 H2          1.7590   -0.6353   -0.9737 H         1 <0>         0.0495
     19 H3          1.7853   -0.6688    0.8221 H         1 <0>         0.0496
     20 H4          0.0026   -0.0042   -0.0376 H         1 <0>         0.1201
     21 H5         -2.1398    1.1865    0.0046 H         1 <0>         0.1295
     22 H6         -0.0771    4.9473    0.0542 H         1 <0>         0.1920
@<TRIPOS>BOND
     1    1    2 1
     2    1   17 1
     3    1   18 1
     4    1   19 1
     5    2    3 1
     6    3    8 ar
     7    3    4 ar
     8    4    5 ar
     9    4   20 1
    10    5    6 ar
    11    5   21 1
    12    6    7 ar
    13    6   14 1
    14    7    8 ar
    15    7   22 1
    16    8    9 1
    17    9   10 2
    18    9   11 1
    19   11   12 2
    20   11   13 1
    21   14   15 2
    22   14   16 1
@<TRIPOS>MOLECULE
ZINC36681824
   27    29     0     0     0
SMALL
USER_CHARGES

@<TRIPOS>ATOM
      1 C1         -0.0184    1.5028    0.0103 C.3       1 <0>        -0.0291
      2 C2          0.0021   -0.0041    0.0020 C.cat     1 <0>         0.1162
      3 N1          0.0075   -0.7809   -1.1138 N.pl3     1 <0>        -0.1568
      4 C3          0.0273   -2.0953   -0.6931 C.ar      1 <0>         0.0055
      5 C4          0.0331   -2.0538    0.7007 C.ar      1 <0>         0.1311
      6 N2          0.0229   -0.7615    1.0651 N.pl3     1 <0>        -0.1521
      7 O1          0.0302   -0.2913    2.4008 O.3       1 <0>        -0.6143
      8 C5          0.0538   -3.3174    1.4575 C.ar      1 <0>        -0.2199
      9 C6          0.0671   -4.5438    0.7459 C.ar      1 <0>         0.3838
     10 C7          0.0606   -4.5380   -0.6528 C.ar      1 <0>        -0.0694
     11 C8          0.0405   -3.3271   -1.3646 C.ar      1 <0>         0.1435
     12 N3          0.0387   -3.6675   -2.6951 N.pl3     1 <0>        -0.1796
     13 C9          0.0563   -5.0317   -2.7694 C.cat     1 <0>         0.1262
     14 N4          0.0707   -5.5409   -1.5744 N.pl3     1 <0>        -0.1151
     15 O2          0.0919   -6.9249   -1.2761 O.3       1 <0>        -0.5917
     16 C10         0.0600   -5.8280   -4.0489 C.3       1 <0>        -0.0334
     17 O3          0.0213   -2.7692   -3.7895 O.3       1 <0>        -0.5769
     18 O4          0.0866   -5.7168    1.4183 O.3       1 <0>        -0.5747
     19 N5          0.0602   -3.3081    2.7794 N.2       1 <0>        -0.2537
     20 O5          0.0772   -4.3585    3.3957 O.2       1 <0>        -0.1638
     21 O6         -0.0048   -0.3269   -2.4550 O.3       1 <0>        -0.5786
     22 H1          1.0042    1.8801    0.0026 H         1 <0>         0.0563
     23 H2         -0.5455    1.8639   -0.8728 H         1 <0>         0.0690
     24 H3         -0.5286    1.8543    0.9071 H         1 <0>         0.0715
     25 H4          1.0884   -6.0065   -4.3628 H         1 <0>         0.0599
     26 H5         -0.4405   -6.7823   -3.8843 H         1 <0>         0.0735
     27 H6         -0.4654   -5.2713   -4.8249 H         1 <0>         0.0726
@<TRIPOS>BOND
     1    1    2 1
     2    1   22 1
     3    1   23 1
     4    1   24 1
     5    2    6 2
     6    2    3 1
     7    3    4 1
     8    3   21 1
     9    4   11 ar
    10    4    5 ar
    11    5    6 1
    12    5    8 ar
    13    6    7 1
    14    8    9 ar
    15    8   19 1
    16    9   10 ar
    17    9   18 1
    18   10   14 1
    19   10   11 ar
    20   11   12 1
    21   12   13 1
    22   12   17 1
    23   13   14 2
    24   13   16 1
    25   14   15 1
    26   16   25 1
    27   16   26 1
    28   16   27 1
    29   19   20 2
@<TRIPOS>MOLECULE
ZINC45953278
   27    28     0     0     0
SMALL
USER_CHARGES

@<TRIPOS>ATOM
      1 C1         -0.0169    1.3858   -0.0062 C.ar      1 <0>        -0.1559
      2 C2          1.1671    2.0989   -0.0138 C.ar      1 <0>        -0.1086
      3 C3          2.3784    1.4353   -0.0136 C.ar      1 <0>        -0.0332
      4 C4          2.4083    0.0368   -0.0053 C.ar      1 <0>        -0.1065
      5 C5          1.2105   -0.6815    0.0028 C.ar      1 <0>        -0.1129
      6 C6          0.0021   -0.0041    0.0020 C.ar      1 <0>         0.1530
      7 N1         -1.2011   -0.7200    0.0101 N.am      1 <0>        -0.5607
      8 C7         -2.5291   -0.1062    0.1263 C.3       1 <0>         0.1211
      9 C8         -3.4809   -1.2556    0.5257 C.3       1 <0>        -0.1664
     10 H1         -3.5818   -1.3198    1.6091 H         1 <0>         0.0851
     11 C9         -2.7371   -2.4899   -0.0349 C.3       1 <0>        -0.1236
     12 C10        -1.2886   -2.0573   -0.0934 C.2       1 <0>         0.5079
     13 O1         -0.3436   -2.8081   -0.2136 O.2       1 <0>        -0.5133
     14 C11        -4.8279   -1.0929   -0.1300 C.2       1 <0>         0.5081
     15 O2         -5.4957   -2.0757   -0.4033 O.co2     1 <0>        -0.6911
     16 O3         -5.2501    0.0217   -0.3873 O.co2     1 <0>        -0.6925
     17 C12         3.6991   -0.6762   -0.0056 C.2       1 <0>         0.5196
     18 O4          3.7223   -1.8990    0.0017 O.co2     1 <0>        -0.6837
     19 O5          4.7465   -0.0447   -0.0131 O.co2     1 <0>        -0.6680
     20 Cl1         3.8624    2.3359   -0.0243 Cl        1 <0>        -0.0606
     21 H2         -0.9607    1.9107   -0.0022 H         1 <0>         0.1272
     22 H3          1.1450    3.1786   -0.0202 H         1 <0>         0.1250
     23 H4          1.2263   -1.7613    0.0089 H         1 <0>         0.1673
     24 H5         -2.5227    0.6635    0.8981 H         1 <0>         0.0764
     25 H6         -2.8328    0.3199   -0.8299 H         1 <0>         0.0831
     26 H7         -2.8567   -3.3431    0.6328 H         1 <0>         0.0972
     27 H8         -3.0995   -2.7324   -1.0339 H         1 <0>         0.1061
@<TRIPOS>BOND
     1    1    6 ar
     2    1    2 ar
     3    1   21 1
     4    2    3 ar
     5    2   22 1
     6    3    4 ar
     7    3   20 1
     8    4    5 ar
     9    4   17 1
    10    5    6 ar
    11    5   23 1
    12    6    7 1
    13    7   12 am
    14    7    8 1
    15    8    9 1
    16    8   24 1
    17    8   25 1
    18    9   10 1
    19    9   11 1
    20    9   14 1
    21   11   12 1
    22   11   26 1
    23   11   27 1
    24   12   13 2
    25   14   15 2
    26   14   16 1
    27   17   18 2
    28   17   19 1
@<TRIPOS>MOLECULE
ZINC62302002
   30    30     0     0     0
SMALL
USER_CHARGES

@<TRIPOS>ATOM
      1 C1         -0.0187    1.5258    0.0104 C.3       1 <0>        -0.1386
      2 C2          0.0021   -0.0041    0.0020 C.3       1 <0>        -0.0819
      3 C3          0.7182   -0.4975   -1.2568 C.3       1 <0>        -0.1396
      4 C4          0.7421   -0.5109    1.2415 C.3       1 <0>        -0.0451
      5 C5         -0.0298   -0.1295    2.4784 C.2       1 <0>         0.0803
      6 C6          0.1038    1.0334    3.2057 C.2       1 <0>        -0.1025
      7 N1         -0.7637    0.9887    4.2331 N.2       1 <0>        -0.2189
      8 N2         -1.4225   -0.1164    4.1928 N.2       1 <0>        -0.1244
      9 N3         -0.9884   -0.8564    3.0843 N.pl3     1 <0>        -0.3586
     10 C7         -1.4809   -2.1713    2.6664 C.3       1 <0>         0.1460
     11 C8         -0.6512   -3.2650    3.3419 C.3       1 <0>        -0.1963
     12 C9         -1.1578   -4.6176    2.9120 C.2       1 <0>         0.5022
     13 O1         -2.0956   -4.6993    2.1372 O.co2     1 <0>        -0.6978
     14 O2         -0.6299   -5.6303    3.3390 O.co2     1 <0>        -0.7012
     15 C10         1.0347    2.1337    2.9099 C.2       1 <0>         0.5675
     16 O3          1.7802    2.0610    1.9425 O.co2     1 <0>        -0.6801
     17 O4          1.0634    3.1214    3.6314 O.co2     1 <0>        -0.6839
     18 H1          1.0039    1.9031    0.0027 H         1 <0>         0.0875
     19 H2         -0.5459    1.8868   -0.8726 H         1 <0>         0.0266
     20 H3         -0.5289    1.8773    0.9072 H         1 <0>         0.0515
     21 H4         -1.0205   -0.3814    0.0098 H         1 <0>         0.0543
     22 H5          1.7408   -0.1202   -1.2645 H         1 <0>         0.0576
     23 H6          0.7330   -1.5874   -1.2628 H         1 <0>         0.0501
     24 H7          0.1910   -0.1364   -2.1398 H         1 <0>         0.0482
     25 H8          0.8346   -1.5958    1.1912 H         1 <0>         0.0632
     26 H9          1.7350   -0.0630    1.2804 H         1 <0>         0.1143
     27 H10        -2.5262   -2.2768    2.9567 H         1 <0>         0.0948
     28 H11        -1.3932   -2.2650    1.5840 H         1 <0>         0.0927
     29 H12         0.3942   -3.1595    3.0516 H         1 <0>         0.0644
     30 H13        -0.7389   -3.1713    4.4243 H         1 <0>         0.0675
@<TRIPOS>BOND
     1    1    2 1
     2    1   18 1
     3    1   19 1
     4    1   20 1
     5    2    3 1
     6    2    4 1
     7    2   21 1
     8    3   22 1
     9    3   23 1
    10    3   24 1
    11    4    5 1
    12    4   25 1
    13    4   26 1
    14    5    9 1
    15    5    6 2
    16    6    7 1
    17    6   15 1
    18    7    8 2
    19    8    9 1
    20    9   10 1
    21   10   11 1
    22   10   27 1
    23   10   28 1
    24   11   12 1
    25   11   29 1
    26   11   30 1
    27   12   13 2
    28   12   14 1
    29   15   16 2
    30   15   17 1
@<TRIPOS>MOLECULE
ZINC05380755
   35    35     0     0     0
SMALL
USER_CHARGES
4-[(2,4-dimethoxyphenyl)methylene]-3-methyl-pent-2-enedioic acid
@<TRIPOS>ATOM
      1 C1         -2.3652    5.2430    5.8314 C.3       1 <0>        -0.0739
      2 C2         -1.4546    4.2345    5.1798 C.2       1 <0>        -0.0210
      3 C3         -0.1791    4.5735    4.8701 C.2       1 <0>        -0.2002
      4 C4          0.3226    5.8441    5.2334 C.2       1 <0>         0.4857
      5 O1         -0.3550    6.5951    5.9101 O.co2     1 <0>        -0.6399
      6 C5         -1.9470    2.8897    4.8814 C.2       1 <0>        -0.0859
      7 C6         -2.0441    2.4636    3.5674 C.2       1 <0>        -0.1130
      8 C7         -1.8188    3.3766    2.5085 C.ar      1 <0>        -0.0815
      9 C8         -2.3293    4.6830    2.5815 C.ar      1 <0>        -0.0257
     10 C9         -2.1111    5.5590    1.5597 C.ar      1 <0>        -0.2300
     11 C10        -1.3818    5.1681    0.4383 C.ar      1 <0>         0.1471
     12 C11        -0.8643    3.8831    0.3502 C.ar      1 <0>        -0.2415
     13 C12        -1.0812    2.9793    1.3748 C.ar      1 <0>         0.1587
     14 O2         -0.5828    1.7209    1.2916 O.3       1 <0>        -0.3004
     15 C13         0.1540    1.3916    0.1123 C.3       1 <0>         0.0278
     16 O3         -1.1716    6.0503   -0.5705 O.3       1 <0>        -0.3221
     17 C14        -1.7259    7.3581   -0.4147 C.3       1 <0>         0.0286
     18 C15        -2.3388    1.9906    5.9765 C.2       1 <0>         0.4929
     19 O4         -2.6615    0.8436    5.7353 O.co2     1 <0>        -0.6437
     20 H1         -3.3441    4.7938    5.9990 H         1 <0>         0.0316
     21 H2         -1.9397    5.5535    6.7857 H         1 <0>         0.0826
     22 H3         -2.4705    6.1112    5.1809 H         1 <0>         0.0546
     23 H4          0.4537    3.8727    4.3458 H         1 <0>         0.0895
     24 H5         -2.2917    1.4350    3.3501 H         1 <0>         0.1270
     25 H6         -2.8952    4.9937    3.4473 H         1 <0>         0.1376
     26 H7         -2.5058    6.5625    1.6199 H         1 <0>         0.1245
     27 H8         -0.2962    3.5878   -0.5195 H         1 <0>         0.1290
     28 H9          0.4953    0.3582    0.1738 H         1 <0>         0.0945
     29 H10         1.0152    2.0541    0.0252 H         1 <0>         0.0535
     30 H11        -0.4864    1.5114   -0.7615 H         1 <0>         0.0499
     31 H12        -1.4850    7.9615   -1.2900 H         1 <0>         0.0918
     32 H13        -2.8085    7.2839   -0.3114 H         1 <0>         0.0524
     33 H14        -1.3072    7.8265    0.4759 H         1 <0>         0.0594
     34 O5          1.5532    6.2245    4.8296 O.co2     1 <0>        -0.7928
     35 O6         -2.3402    2.4381    7.2483 O.co2     1 <0>        -0.7472
@<TRIPOS>BOND
     1    1    2 1
     2    1   20 1
     3    1   21 1
     4    1   22 1
     5    2    3 2
     6    2    6 1
     7    3    4 1
     8    3   23 1
     9    4    5 2
    10    4   34 1
    11    6    7 2
    12    6   18 1
    13    7    8 1
    14    7   24 1
    15    8   13 ar
    16    8    9 ar
    17    9   10 ar
    18    9   25 1
    19   10   11 ar
    20   10   26 1
    21   11   12 ar
    22   11   16 1
    23   12   13 ar
    24   12   27 1
    25   13   14 1
    26   14   15 1
    27   15   28 1
    28   15   29 1
    29   15   30 1
    30   16   17 1
    31   17   31 1
    32   17   32 1
    33   17   33 1
    34   18   19 2
    35   18   35 1
@<TRIPOS>MOLECULE
ZINC05496033
   20    19     0     0     0
SMALL
USER_CHARGES
(Z,4E)-4-(2-methoxy-2-oxo-ethylidene)pent-2-enedioic acid
@<TRIPOS>ATOM
      1 C1          4.7070    1.5249   -0.6062 C.3       1 <0>         0.0384
      2 O1          3.4604    2.2553   -0.4619 O.3       1 <0>        -0.3655
      3 C2          2.3255    1.5284   -0.4275 C.2       1 <0>         0.5012
      4 O2          2.3767    0.3179   -0.5157 O.2       1 <0>        -0.5264
      5 C3          1.0239    2.2017   -0.2830 C.2       1 <0>        -0.2518
      6 C4         -0.1095    1.4651   -0.1254 C.2       1 <0>         0.0830
      7 C5         -0.0219    0.0074    0.0334 C.2       1 <0>        -0.1007
      8 C6         -0.3740   -0.5665    1.2034 C.2       1 <0>        -0.1591
      9 C7         -0.6848    0.2712    2.3670 C.2       1 <0>         0.4834
     10 O3         -0.6587    1.4825    2.2683 O.co2     1 <0>        -0.5984
     11 C8         -1.4325    2.1328   -0.1201 C.2       1 <0>         0.5139
     12 O4         -1.5105    3.3272   -0.3235 O.co2     1 <0>        -0.6408
     13 H1          5.5403    2.2275   -0.6197 H         1 <0>         0.0878
     14 H2          4.8246    0.8378    0.2317 H         1 <0>         0.0552
     15 H3          4.6919    0.9612   -1.5390 H         1 <0>         0.0528
     16 H4          0.9687    3.2801   -0.3021 H         1 <0>         0.1371
     17 H5          0.3242   -0.6052   -0.7859 H         1 <0>         0.1187
     18 H6         -0.4270   -1.6422    1.2828 H         1 <0>         0.0987
     19 O5         -0.9994   -0.3026    3.5462 O.co2     1 <0>        -0.7928
     20 O6         -2.5483    1.4148    0.1105 O.co2     1 <0>        -0.7347
@<TRIPOS>BOND
     1    1    2 1
     2    1   13 1
     3    1   14 1
     4    1   15 1
     5    2    3 1
     6    3    4 2
     7    3    5 1
     8    5    6 2
     9    5   16 1
    10    6    7 1
    11    6   11 1
    12    7    8 2
    13    7   17 1
    14    8    9 1
    15    8   18 1
    16    9   10 2
    17    9   19 1
    18   11   12 2
    19   11   20 1
@<TRIPOS>MOLECULE
ZINC36007010
   29    32     0     0     0
SMALL
USER_CHARGES

@<TRIPOS>ATOM
      1 C1         -0.0167    1.3768    0.0096 C.ar      1 <0>        -0.1458
      2 C2          1.1721    2.0835    0.0021 C.ar      1 <0>        -0.0977
      3 C3          2.3751    1.4086   -0.0199 C.ar      1 <0>        -0.1446
      4 C4          2.4004    0.0179   -0.0306 C.ar      1 <0>         0.1299
      5 C5          1.2051   -0.6874   -0.0115 C.ar      1 <0>        -0.1265
      6 C6          0.0021   -0.0041    0.0020 C.ar      1 <0>        -0.0709
      7 C7          1.2061   -2.1858    0.0107 C.3       1 <0>         0.0721
      8 H1          1.1925   -2.4922    1.0566 H         1 <0>         0.0742
      9 C8          0.0368   -2.8103   -0.6434 C.2       1 <0>        -0.3326
     10 C9         -0.0243   -4.0219   -1.2761 C.2       1 <0>         0.1607
     11 N1         -1.2290   -4.3416   -1.7481 N.2       1 <0>        -0.6373
     12 C10        -2.2602   -3.5381   -1.6301 C.2       1 <0>         0.4183
     13 O1         -3.5304   -3.7301   -2.0624 O.3       1 <0>        -0.6439
     14 S1         -1.6233   -2.2106   -0.8123 S.3       1 <0>        -0.1130
     15 S2          1.4245   -5.0406   -1.4416 S.3       1 <0>        -0.0416
     16 C11         2.6158   -4.2144   -0.3376 C.3       1 <0>        -0.1188
     17 H2          2.3718   -4.4370    0.7012 H         1 <0>         0.0894
     18 C12         2.5089   -2.7105   -0.5940 C.3       1 <0>        -0.1066
     19 H3          2.5143   -2.5158   -1.6665 H         1 <0>         0.1166
     20 C13         3.6433   -1.9537    0.0523 C.2       1 <0>         0.4732
     21 O2          4.5321   -2.5183    0.6448 O.2       1 <0>        -0.3581
     22 O3          3.6081   -0.6079   -0.0702 O.3       1 <0>        -0.3103
     23 C14         4.0121   -4.6898   -0.6466 C.2       1 <0>         0.5154
     24 O4          4.2775   -5.1220   -1.7554 O.co2     1 <0>        -0.6771
     25 O5          4.8763   -4.6422    0.2121 O.co2     1 <0>        -0.6519
     26 H4         -0.9589    1.9044    0.0260 H         1 <0>         0.1236
     27 H5          1.1587    3.1634    0.0130 H         1 <0>         0.1254
     28 H6          3.3020    1.9628   -0.0292 H         1 <0>         0.1294
     29 H7         -0.9276   -0.5537    0.0070 H         1 <0>         0.1483
@<TRIPOS>BOND
     1    1    6 ar
     2    1    2 ar
     3    1   26 1
     4    2    3 ar
     5    2   27 1
     6    3    4 ar
     7    3   28 1
     8    4   22 1
     9    4    5 ar
    10    5    6 ar
    11    5    7 1
    12    6   29 1
    13    7    8 1
    14    7   18 1
    15    7    9 1
    16    9   14 1
    17    9   10 2
    18   10   11 1
    19   10   15 1
    20   11   12 2
    21   12   13 1
    22   12   14 1
    23   15   16 1
    24   16   17 1
    25   16   18 1
    26   16   23 1
    27   18   19 1
    28   18   20 1
    29   20   21 2
    30   20   22 1
    31   23   24 2
    32   23   25 1
@<TRIPOS>MOLECULE
ZINC39942741
   28    28     0     0     0
SMALL
USER_CHARGES

@<TRIPOS>ATOM
      1 C1          0.0892    1.5014   -0.0101 C.3       1 <0>        -0.1086
      2 C2          0.0673   -0.0285   -0.0050 C.3       1 <0>        -0.1240
      3 C3         -1.3860   -0.5494    0.1201 C.3       1 <0>        -0.0992
      4 C4         -1.6614   -0.4322    1.6398 C.3       1 <0>        -0.1037
      5 C5         -0.3247   -0.8311    2.2984 C.3       1 <0>        -0.0498
      6 C6          0.7745   -0.5744    1.2526 C.3       1 <0>        -0.0183
      7 C7          1.4982   -1.8811    0.9214 C.3       1 <0>        -0.1181
      8 C8          1.7716    0.4578    1.7829 C.3       1 <0>        -0.1304
      9 C9         -0.0800    0.0134    3.5224 C.2       1 <0>         0.5216
     10 O1          0.8492   -0.2475    4.2673 O.co2     1 <0>        -0.6792
     11 O2         -0.8114    0.9576    3.7677 O.co2     1 <0>        -0.6911
     12 Br1        -0.3569   -2.7348    2.7882 Br        1 <0>        -0.1978
     13 C10         0.7185   -0.5682   -1.2524 C.2       1 <0>         0.5120
     14 O3          1.1794    0.1991   -2.0802 O.co2     1 <0>        -0.7113
     15 O4          0.7843   -1.7720   -1.4336 O.co2     1 <0>        -0.6931
     16 H1          1.1220    1.8500   -0.0051 H         1 <0>         0.0479
     17 H2         -0.4140    1.8690   -0.9044 H         1 <0>         0.0382
     18 H3         -0.4247    1.8750    0.8755 H         1 <0>         0.0409
     19 H4         -2.0721    0.0801   -0.4465 H         1 <0>         0.0479
     20 H5         -1.4537   -1.5873   -0.2058 H         1 <0>         0.0660
     21 H6         -1.9250    0.5925    1.9018 H         1 <0>         0.0884
     22 H7         -2.4536   -1.1190    1.9380 H         1 <0>         0.0524
     23 H8          2.2401   -1.6985    0.1440 H         1 <0>         0.0480
     24 H9          1.9942   -2.2584    1.8156 H         1 <0>         0.0315
     25 H10         0.7758   -2.6171    0.5686 H         1 <0>         0.0752
     26 H11         1.2328    1.3421    2.1232 H         1 <0>         0.0536
     27 H12         2.3297    0.0296    2.6155 H         1 <0>         0.0623
     28 H13         2.4628    0.7372    0.9877 H         1 <0>         0.0384
@<TRIPOS>BOND
     1    1    2 1
     2    1   16 1
     3    1   17 1
     4    1   18 1
     5    2    6 1
     6    2    3 1
     7    2   13 1
     8    3    4 1
     9    3   19 1
    10    3   20 1
    11    4    5 1
    12    4   21 1
    13    4   22 1
    14    5    6 1
    15    5    9 1
    16    5   12 1
    17    6    7 1
    18    6    8 1
    19    7   23 1
    20    7   24 1
    21    7   25 1
    22    8   26 1
    23    8   27 1
    24    8   28 1
    25    9   10 2
    26    9   11 1
    27   13   14 2
    28   13   15 1
@<TRIPOS>MOLECULE
ZINC58017728
   33    33     0     0     0
SMALL
USER_CHARGES

@<TRIPOS>ATOM
      1 C1         -2.1401   -0.1747   -3.2548 C.3       1 <0>        -0.1825
      2 C2         -2.0429    1.2157   -2.6819 C.2       1 <0>         0.3981
      3 O1         -1.6149    2.1325   -3.3701 O.3       1 <0>        -0.5436
      4 C3         -2.4382    1.4560   -1.3760 C.2       1 <0>        -0.5657
      5 C4         -2.4582    2.7515   -0.8856 C.2       1 <0>         0.3965
      6 O2         -2.0335    3.6719   -1.5711 O.2       1 <0>        -0.5450
      7 C5         -3.0031    3.0273    0.4921 C.3       1 <0>        -0.1973
      8 S1         -2.9153    0.1139   -0.3388 S.3       1 <0>        -0.0156
      9 C6         -1.6830    0.0892    0.9203 C.ar      1 <0>        -0.0610
     10 C7         -0.5800    0.9393    0.8317 C.ar      1 <0>        -0.1427
     11 C8          0.3757    0.9230    1.8051 C.ar      1 <0>        -0.0470
     12 C9          0.2487    0.0511    2.8950 C.ar      1 <0>        -0.1886
     13 C10        -0.8604   -0.8015    2.9810 C.ar      1 <0>        -0.0536
     14 C11        -1.8152   -0.7764    2.0068 C.ar      1 <0>        -0.1363
     15 C12         1.2778    0.0304    3.9465 C.2       1 <0>         0.4243
     16 O3          2.2400    0.7706    3.8704 O.2       1 <0>        -0.4824
     17 C13         1.1425   -0.8888    5.0941 C.2       1 <0>        -0.2218
     18 C14         2.0832   -0.9076    6.0552 C.2       1 <0>        -0.1075
     19 C15         1.9482   -1.8243    7.1996 C.2       1 <0>         0.5051
     20 O4          0.9806   -2.5686    7.2762 O.co2     1 <0>        -0.6829
     21 O5          2.8036   -1.8415    8.0737 O.co2     1 <0>        -0.6899
     22 H1         -3.1614   -0.5407   -3.1491 H         1 <0>         0.0660
     23 H2         -1.8696   -0.1524   -4.3105 H         1 <0>         0.0505
     24 H3         -1.4596   -0.8367   -2.7193 H         1 <0>         0.0704
     25 H4         -2.1861    3.0221    1.2137 H         1 <0>         0.0666
     26 H5         -3.4901    4.0024    0.5017 H         1 <0>         0.0545
     27 H6         -3.7271    2.2569    0.7575 H         1 <0>         0.0750
     28 H7         -0.4826    1.6107   -0.0086 H         1 <0>         0.1314
     29 H8          1.2293    1.5810    1.7357 H         1 <0>         0.1233
     30 H9         -0.9610   -1.4748    3.8193 H         1 <0>         0.1327
     31 H10        -2.6721   -1.4302    2.0745 H         1 <0>         0.1240
     32 H11         0.2881   -1.5460    5.1616 H         1 <0>         0.1360
     33 H12         2.9375   -0.2504    5.9876 H         1 <0>         0.1089
@<TRIPOS>BOND
     1    1   22 1
     2    1   23 1
     3    1   24 1
     4    1    2 1
     5    2    4 2
     6    2    3 1
     7    4    8 1
     8    4    5 1
     9    5    7 1
    10    5    6 2
    11    7   25 1
    12    7   26 1
    13    7   27 1
    14    8    9 1
    15    9   14 ar
    16    9   10 ar
    17   10   11 ar
    18   10   28 1
    19   11   12 ar
    20   11   29 1
    21   12   13 ar
    22   12   15 1
    23   13   14 ar
    24   13   30 1
    25   14   31 1
    26   15   16 2
    27   15   17 1
    28   17   18 2
    29   17   32 1
    30   18   19 1
    31   18   33 1
    32   19   20 2
    33   19   21 1
@<TRIPOS>MOLECULE
ZINC06221111
   34    35     0     0     0
SMALL
USER_CHARGES
4-[[3-(3-carboxypropyl)-4-oxo-2-thioxo-thiazolidin-5-ylidene]methyl]benzoic acid
@<TRIPOS>ATOM
      1 C1          8.5975    7.6575   -0.6264 C.ar      1 <0>        -0.0936
      2 C2          9.8425    8.1435   -0.3450 C.ar      1 <0>        -0.0791
      3 C3         10.8909    7.9477   -1.2493 C.ar      1 <0>        -0.0766
      4 C4         10.6676    7.2490   -2.4397 C.ar      1 <0>        -0.0956
      5 C5          9.4249    6.7570   -2.7207 C.ar      1 <0>        -0.0863
      6 C6          8.3740    6.9525   -1.8158 C.ar      1 <0>        -0.1159
      7 C7          7.0367    6.4237   -2.1167 C.2       1 <0>         0.1021
      8 C8          6.0650    6.4586   -1.1711 C.2       1 <0>        -0.2587
      9 C9          4.6244    6.1336   -1.2848 C.2       1 <0>         0.5470
     10 O1          4.1311    5.7703   -2.3357 O.2       1 <0>        -0.4609
     11 N1          3.9026    6.2586   -0.1837 N.am      1 <0>        -0.5158
     12 C10         4.4527    6.6665    0.9778 C.2       1 <0>         0.2665
     13 S1          3.6888    6.8937    2.4930 S.2       1 <0>        -0.3695
     14 S2          6.1705    6.9096    0.5555 S.3       1 <0>         0.0828
     15 C11         2.4707    5.9525   -0.2284 C.3       1 <0>         0.0802
     16 C12         2.2550    4.4732    0.0973 C.3       1 <0>        -0.1073
     17 C13         0.7595    4.1535    0.0507 C.3       1 <0>        -0.1506
     18 C14         0.5470    2.6965    0.3715 C.2       1 <0>         0.4622
     19 O2          1.4945    1.9866    0.6127 O.co2     1 <0>        -0.6388
     20 C15        12.2346    8.4785   -0.9466 C.2       1 <0>         0.4855
     21 O3         13.1460    8.3083   -1.7318 O.co2     1 <0>        -0.6263
     22 H1          7.7868    7.8130    0.0700 H         1 <0>         0.1245
     23 H2         10.0162    8.6833    0.5741 H         1 <0>         0.1412
     24 H3         11.4783    7.0981   -3.1372 H         1 <0>         0.1359
     25 H4          9.2528    6.2171   -3.6401 H         1 <0>         0.1295
     26 H5          6.8274    6.0072   -3.0909 H         1 <0>         0.1599
     27 H6          2.0846    6.1651   -1.2253 H         1 <0>         0.0985
     28 H7          1.9450    6.5660    0.5033 H         1 <0>         0.1089
     29 H8          2.6410    4.2606    1.0943 H         1 <0>         0.0729
     30 H9          2.7807    3.8597   -0.6343 H         1 <0>         0.0657
     31 H10         0.3734    4.3661   -0.9463 H         1 <0>         0.0657
     32 H11         0.2338    4.7670    0.7823 H         1 <0>         0.0698
     33 O4         -0.6948    2.1873    0.3893 O.co2     1 <0>        -0.7781
     34 O5         12.4504    9.1518    0.2004 O.co2     1 <0>        -0.7458
@<TRIPOS>BOND
     1    1    6 ar
     2    1    2 ar
     3    1   22 1
     4    2    3 ar
     5    2   23 1
     6    3    4 ar
     7    3   20 1
     8    4    5 ar
     9    4   24 1
    10    5    6 ar
    11    5   25 1
    12    6    7 1
    13    7    8 2
    14    7   26 1
    15    8   14 1
    16    8    9 1
    17    9   10 2
    18    9   11 am
    19   11   12 1
    20   11   15 1
    21   12   13 2
    22   12   14 1
    23   15   16 1
    24   15   27 1
    25   15   28 1
    26   16   17 1
    27   16   29 1
    28   16   30 1
    29   17   18 1
    30   17   31 1
    31   17   32 1
    32   18   19 2
    33   18   33 1
    34   20   21 2
    35   20   34 1
@<TRIPOS>MOLECULE
ZINC19764107
   37    39     0     0     0
SMALL
USER_CHARGES
[(1S)-1-carboxypropyl]-methyl-oxo-BLAHcarboxylic acid
@<TRIPOS>ATOM
      1 C1          2.7634    1.1470    2.2130 C.3       1 <0>        -0.1451
      2 C2          2.5968    0.2812    0.9625 C.3       1 <0>        -0.1279
      3 C3          2.3873    1.1813   -0.2568 C.3       1 <0>         0.0773
      4 H1          3.1907    1.9281   -0.3392 H         1 <0>         0.0955
      5 C4          2.3460    0.3363   -1.5039 C.2       1 <0>         0.4584
      6 O1          1.3610    0.3398   -2.2037 O.co2     1 <0>        -0.5809
      7 O2          3.4034   -0.4204   -1.8372 O.co2     1 <0>        -0.7742
      8 N1          1.1225    1.9071   -0.1165 N.am      1 <0>        -0.4974
      9 C5          1.1296    3.2649   -0.1277 C.2       1 <0>         0.3989
     10 N2          0.0236    3.9495   -0.0064 N.2       1 <0>        -0.5213
     11 C6         -1.1478    3.3335    0.1331 C.2       1 <0>         0.0946
     12 C7         -1.2544    1.9367    0.1523 C.2       1 <0>        -0.1974
     13 C8         -0.0240    1.2143    0.0213 C.2       1 <0>         0.5463
     14 O3         -0.0158   -0.0046    0.0295 O.2       1 <0>        -0.4342
     15 C9         -2.6107    1.3939    0.3198 C.2       1 <0>        -0.0035
     16 C10        -3.6123    2.2839    0.4254 C.2       1 <0>        -0.2429
     17 S1         -2.8258    3.8752    0.3204 S.3       1 <0>         0.0984
     18 C11        -4.9518    1.6156    0.5817 C.3       1 <0>        -0.0210
     19 C12        -4.7135    0.1589    0.1267 C.3       1 <0>        -0.0789
     20 C13        -3.2073   -0.0138    0.4044 C.3       1 <0>        -0.0892
     21 H2         -3.0087   -0.4893    1.3763 H         1 <0>         0.0835
     22 C14        -2.5845   -0.9074   -0.6371 C.2       1 <0>         0.4608
     23 O4         -1.7408   -0.4690   -1.3828 O.co2     1 <0>        -0.5740
     24 O5         -2.9669   -2.1902   -0.7363 O.co2     1 <0>        -0.7957
     25 C15         2.4382    3.9960   -0.2835 C.3       1 <0>        -0.1062
     26 H3          2.9140    0.4998    3.0896 H         1 <0>         0.0511
     27 H4          1.8603    1.7578    2.3590 H         1 <0>         0.0428
     28 H5          3.6356    1.8057    2.0893 H         1 <0>         0.0485
     29 H6          3.4999   -0.3296    0.8165 H         1 <0>         0.0848
     30 H7          1.7246   -0.3776    1.0861 H         1 <0>         0.0890
     31 H8         -5.2681    1.6700    1.6338 H         1 <0>         0.0707
     32 H9         -5.6926    2.1267   -0.0507 H         1 <0>         0.0653
     33 H10        -5.3440   -0.5187    0.7211 H         1 <0>         0.0731
     34 H11        -4.9717    0.0604   -0.9380 H         1 <0>         0.0696
     35 H12         2.2559    5.0807   -0.2709 H         1 <0>         0.0971
     36 H13         2.9045    3.7136   -1.2389 H         1 <0>         0.0940
     37 H14         3.1093    3.7273    0.5456 H         1 <0>         0.0903
@<TRIPOS>BOND
     1    1    2 1
     2    1   26 1
     3    1   27 1
     4    1   28 1
     5    2    3 1
     6    2   29 1
     7    2   30 1
     8    3    4 1
     9    3    5 1
    10    3    8 1
    11    5    6 2
    12    5    7 1
    13    8   13 am
    14    8    9 1
    15    9   10 2
    16    9   25 1
    17   10   11 1
    18   11   17 1
    19   11   12 2
    20   12   13 1
    21   12   15 1
    22   13   14 2
    23   15   20 1
    24   15   16 2
    25   16   17 1
    26   16   18 1
    27   18   19 1
    28   18   31 1
    29   18   32 1
    30   19   20 1
    31   19   33 1
    32   19   34 1
    33   20   21 1
    34   20   22 1
    35   22   23 2
    36   22   24 1
    37   25   35 1
    38   25   36 1
    39   25   37 1
@<TRIPOS>MOLECULE
ZINC25501489
   41    43     0     0     0
SMALL
USER_CHARGES
(3S)-1-[4-[(4-nitrophenyl)sulfamoyl]phenyl]-5-oxo-pyrrolidine-3-carboxylic acid
@<TRIPOS>ATOM
      1 C1          0.6097   -0.7922    1.5580 C.ar      1 <0>        -0.2262
      2 C2          0.2710   -1.6730    2.5664 C.ar      1 <0>        -0.0226
      3 C3         -1.0156   -1.6845    3.0733 C.ar      1 <0>        -0.1299
      4 C4         -1.9656   -0.8109    2.5767 C.ar      1 <0>        -0.0318
      5 C5         -1.6320    0.0767    1.5727 C.ar      1 <0>        -0.1653
      6 C6         -0.3405    0.0909    1.0612 C.ar      1 <0>         0.2938
      7 N1          0.0003    0.9873    0.0457 N.2       1 <0>        -1.0725
      8 S1          1.4100    1.8509    0.1423 S.o2      1 <0>         2.6180
      9 O1          2.4420    0.9141    0.4190 O.2       1 <0>        -1.0352
     10 O2          1.4412    2.7056   -0.9925 O.2       1 <0>        -0.9916
     11 C7          1.2854    2.8951    1.5560 C.ar      1 <0>        -0.6925
     12 C8          0.6636    4.1259    1.4520 C.ar      1 <0>         0.0041
     13 C9          0.5601    4.9447    2.5594 C.ar      1 <0>        -0.1859
     14 C10         1.0906    4.5353    3.7758 C.ar      1 <0>         0.2103
     15 C11         1.7191    3.3010    3.8757 C.ar      1 <0>        -0.1828
     16 C12         1.8147    2.4846    2.7658 C.ar      1 <0>        -0.0013
     17 N2          0.9925    5.3650    4.8983 N.am      1 <0>        -0.5594
     18 C13         1.4119    4.9808    6.2512 C.3       1 <0>         0.1104
     19 C14         0.7315    5.9949    7.1972 C.3       1 <0>        -0.1485
     20 H1         -0.1893    5.6295    7.6754 H         1 <0>         0.0998
     21 C15         0.5364    7.2135    6.2655 C.3       1 <0>        -0.1254
     22 C16         0.5073    6.6183    4.8749 C.2       1 <0>         0.5228
     23 O3          0.1025    7.1882    3.8837 O.2       1 <0>        -0.5219
     24 C17         1.6318    6.3402    8.3553 C.2       1 <0>         0.4705
     25 O4          2.7259    5.8348    8.4416 O.co2     1 <0>        -0.6313
     26 O5          1.2182    7.2091    9.2911 O.co2     1 <0>        -0.7619
     27 N3         -1.3764   -2.6336    4.1501 N.pl3     1 <0>         0.0564
     28 O6         -2.5091   -2.6447    4.5978 O.2       1 <0>        -0.2077
     29 O7         -0.5408   -3.4037    4.5885 O.3       1 <0>        -0.2065
     30 H2          1.6134   -0.7868    1.1595 H         1 <0>         0.1607
     31 H3          1.0106   -2.3563    2.9567 H         1 <0>         0.1338
     32 H4         -2.9695   -0.8225    2.9748 H         1 <0>         0.1342
     33 H5         -2.3742    0.7592    1.1858 H         1 <0>         0.1348
     34 H6          0.2549    4.4454    0.5048 H         1 <0>         0.1349
     35 H7          0.0707    5.9041    2.4785 H         1 <0>         0.1566
     36 H8          2.1323    2.9796    4.8203 H         1 <0>         0.1299
     37 H9          2.3036    1.5247    2.8427 H         1 <0>         0.1360
     38 H10         1.0813    3.9525    6.4594 H         1 <0>         0.0798
     39 H11         2.5081    5.0355    6.3247 H         1 <0>         0.0984
     40 H12        -0.4071    7.7200    6.5170 H         1 <0>         0.1065
     41 H13         1.3747    7.9135    6.3969 H         1 <0>         0.1087
@<TRIPOS>BOND
     1    1    6 ar
     2    1    2 ar
     3    1   30 1
     4    2    3 ar
     5    2   31 1
     6    3    4 ar
     7    3   27 1
     8    4    5 ar
     9    4   32 1
    10    5    6 ar
    11    5   33 1
    12    6    7 1
    13    7    8 1
    14    8    9 2
    15    8   10 2
    16    8   11 1
    17   11   16 ar
    18   11   12 ar
    19   12   13 ar
    20   12   34 1
    21   13   14 ar
    22   13   35 1
    23   14   15 ar
    24   14   17 1
    25   15   16 ar
    26   15   36 1
    27   16   37 1
    28   17   22 am
    29   17   18 1
    30   18   19 1
    31   18   38 1
    32   18   39 1
    33   19   20 1
    34   19   21 1
    35   19   24 1
    36   21   22 1
    37   21   40 1
    38   21   41 1
    39   22   23 2
    40   24   25 2
    41   24   26 1
    42   27   28 2
    43   27   29 1
@<TRIPOS>MOLECULE
ZINC13448613
   48    49     0     0     0
SMALL
USER_CHARGES

@<TRIPOS>ATOM
      1 C1         -0.0187    1.5258    0.0104 C.3       1 <0>        -0.1747
      2 C2          0.0021   -0.0041    0.0020 C.3       1 <0>         0.0997
      3 N1          0.6878   -0.4765   -1.2033 N.am      1 <0>        -0.6046
      4 C3          2.1353   -0.7012   -1.1821 C.3       1 <0>         0.1572
      5 H1          2.5217   -0.4768   -0.1878 H         1 <0>         0.1095
      6 C4          2.4288   -2.1714   -1.5239 C.3       1 <0>        -0.1530
      7 C5          3.9529   -2.3090   -1.8021 C.3       1 <0>        -0.5694
      8 S1          4.2600   -0.7691   -2.7660 S.o2      1 <0>         2.3734
      9 O1          4.1249   -1.0561   -4.1512 O.2       1 <0>        -0.9246
     10 O2          5.4514   -0.1567   -2.2918 O.2       1 <0>        -0.9476
     11 C6          2.8145    0.2260   -2.2187 C.3       1 <0>        -0.5962
     12 C7         -0.0130   -0.7045   -2.3317 C.2       1 <0>         0.5390
     13 O3          0.5546   -1.0956   -3.3296 O.2       1 <0>        -0.5150
     14 C8         -1.5021   -0.4734   -2.3536 C.3       1 <0>        -0.1373
     15 S2         -2.1508   -0.8661   -4.0015 S.3       1 <0>         0.0066
     16 C9         -3.8788   -0.5494   -3.8659 C.ar      1 <0>         0.3026
     17 N2         -4.3685   -0.1180   -2.7122 N.ar      1 <0>        -0.6248
     18 C10        -5.6654    0.1295   -2.5782 C.ar      1 <0>         0.4455
     19 O4         -6.1622    0.5709   -1.3972 O.3       1 <0>        -0.6930
     20 C11        -6.5098   -0.0704   -3.6699 C.ar      1 <0>        -0.2696
     21 C12        -5.9602   -0.5210   -4.8553 C.ar      1 <0>         0.1572
     22 N3         -4.6563   -0.7432   -4.9215 N.ar      1 <0>        -0.5834
     23 C13        -6.8344   -0.7517   -6.0610 C.3       1 <0>        -0.0912
     24 C14        -7.9885    0.1984   -3.5594 C.3       1 <0>        -0.0170
     25 C15        -8.2722    1.6531   -3.9393 C.3       1 <0>        -0.1642
     26 C16        -9.7509    1.9218   -3.8288 C.2       1 <0>         0.4944
     27 O5        -10.5077    1.0324   -3.4787 O.co2     1 <0>        -0.7032
     28 O6        -10.1905    3.0288   -4.0896 O.co2     1 <0>        -0.7220
     29 H2          1.0039    1.9031    0.0027 H         1 <0>         0.0557
     30 H3         -0.5459    1.8868   -0.8726 H         1 <0>         0.0647
     31 H4         -0.5289    1.8773    0.9072 H         1 <0>         0.0720
     32 H5          0.5293   -0.3651    0.8851 H         1 <0>         0.0817
     33 H6         -1.0205   -0.3814    0.0098 H         1 <0>         0.0941
     34 H7          2.1489   -2.8076   -0.6842 H         1 <0>         0.1003
     35 H8          1.8650   -2.4630   -2.4100 H         1 <0>         0.1142
     36 H9          4.5242   -2.3136   -0.8738 H         1 <0>         0.1358
     37 H10         4.1663   -3.1963   -2.3982 H         1 <0>         0.1415
     38 H11         2.1446    0.4272   -3.0547 H         1 <0>         0.1560
     39 H12         3.1406    1.1550   -1.7511 H         1 <0>         0.1407
     40 H13        -1.9801   -1.1142   -1.6127 H         1 <0>         0.1189
     41 H14        -1.7112    0.5706   -2.1201 H         1 <0>         0.1195
     42 H15        -6.8909    0.1642   -6.6494 H         1 <0>         0.0657
     43 H16        -6.4098   -1.5494   -6.6704 H         1 <0>         0.0598
     44 H17        -7.8349   -1.0365   -5.7353 H         1 <0>         0.0741
     45 H18        -8.5298   -0.4654   -4.2335 H         1 <0>         0.0497
     46 H19        -8.3146    0.0203   -2.5347 H         1 <0>         0.0634
     47 H20        -7.7309    2.3169   -3.2652 H         1 <0>         0.0538
     48 H21        -7.9461    1.8312   -4.9641 H         1 <0>         0.0441
@<TRIPOS>BOND
     1    1    2 1
     2    1   29 1
     3    1   30 1
     4    1   31 1
     5    2    3 1
     6    2   32 1
     7    2   33 1
     8    3    4 1
     9    3   12 am
    10    4    5 1
    11    4   11 1
    12    4    6 1
    13    6    7 1
    14    6   34 1
    15    6   35 1
    16    7    8 1
    17    7   36 1
    18    7   37 1
    19    8    9 2
    20    8   10 2
    21    8   11 1
    22   11   38 1
    23   11   39 1
    24   12   13 2
    25   12   14 1
    26   14   15 1
    27   14   40 1
    28   14   41 1
    29   15   16 1
    30   16   22 ar
    31   16   17 ar
    32   17   18 ar
    33   18   19 1
    34   18   20 ar
    35   20   21 ar
    36   20   24 1
    37   21   22 ar
    38   21   23 1
    39   23   42 1
    40   23   43 1
    41   23   44 1
    42   24   25 1
    43   24   45 1
    44   24   46 1
    45   25   26 1
    46   25   47 1
    47   25   48 1
    48   26   27 2
    49   26   28 1
@<TRIPOS>MOLECULE
ZINC34894424
   37    39     0     0     0
SMALL
USER_CHARGES

@<TRIPOS>ATOM
      1 C1         -0.0184    1.5028    0.0103 C.3       1 <0>        -0.1276
      2 C2          0.0021   -0.0041    0.0020 C.ar      1 <0>         0.1499
      3 C3          0.0057   -0.6877   -1.2116 C.ar      1 <0>        -0.0164
      4 C4          0.0252   -2.0846   -1.2007 C.ar      1 <0>        -0.0222
      5 C5          0.0402   -2.7322    0.0230 C.ar      1 <0>        -0.0847
      6 C6          0.0354   -1.9831    1.1849 C.ar      1 <0>         0.0242
      7 N1          0.0219   -0.6635    1.1435 N.ar      1 <0>        -0.0978
      8 O1          0.0230    0.0636    2.3586 O.3       1 <0>        -0.4936
      9 C7          0.0516   -2.6834    2.5192 C.3       1 <0>         0.5325
     10 F1          0.1848   -4.0618    2.3209 F         1 <0>        -0.1628
     11 F2          1.1294   -2.2152    3.2785 F         1 <0>        -0.1495
     12 F3         -1.1442   -2.4232    3.1970 F         1 <0>        -0.1533
     13 C8         -0.0114    0.0562   -2.4961 C.2       1 <0>         0.3015
     14 N2         -0.0151   -0.4971   -3.7188 N.2       1 <0>        -0.5176
     15 C9         -0.0313    0.4432   -4.6355 C.2       1 <0>         0.3541
     16 O2         -0.0386    1.6358   -4.0143 O.3       1 <0>        -0.0828
     17 N3         -0.0311    1.3610   -2.6216 N.2       1 <0>        -0.2974
     18 C10        -0.0402    0.2279   -6.0966 C.ar      1 <0>        -0.0435
     19 C11        -0.0518    1.3215   -6.9650 C.ar      1 <0>         0.0001
     20 C12        -0.0595    1.1189   -8.3285 C.ar      1 <0>        -0.0714
     21 C13        -0.0563   -0.1705   -8.8417 C.ar      1 <0>         0.1921
     22 C14        -0.0447   -1.2662   -7.9807 C.ar      1 <0>         0.0839
     23 C15        -0.0311   -1.0699   -6.6128 C.ar      1 <0>        -0.0175
     24 O3         -0.0415   -2.5286   -8.4866 O.3       1 <0>        -0.4648
     25 O4         -0.0648   -0.3650  -10.1863 O.3       1 <0>        -0.4560
     26 N4         -0.0718    2.2793   -9.2474 N.pl3     1 <0>         0.0335
     27 O5         -0.0751    3.4032   -8.8018 O.2       1 <0>        -0.1507
     28 O6         -0.0786    2.1032  -10.4435 O.3       1 <0>        -0.1224
     29 H1          1.0042    1.8801    0.0026 H         1 <0>         0.1033
     30 H2         -0.5455    1.8639   -0.8728 H         1 <0>         0.1101
     31 H3         -0.5286    1.8543    0.9071 H         1 <0>         0.1097
     32 H4          0.0281   -2.6453   -2.1238 H         1 <0>         0.1825
     33 H5          0.0551   -3.8111    0.0694 H         1 <0>         0.1903
     34 H6         -0.0551    2.3260   -6.5683 H         1 <0>         0.1758
     35 H7         -0.0176   -1.9181   -5.9444 H         1 <0>         0.1739
     36 H8          0.8428   -2.8890   -8.6389 H         1 <0>         0.4020
     37 H9          0.8160   -0.4166  -10.5819 H         1 <0>         0.4125
@<TRIPOS>BOND
     1    1    2 1
     2    1   29 1
     3    1   30 1
     4    1   31 1
     5    2    7 ar
     6    2    3 ar
     7    3    4 ar
     8    3   13 1
     9    4    5 ar
    10    4   32 1
    11    5    6 ar
    12    5   33 1
    13    6    7 ar
    14    6    9 1
    15    7    8 1
    16    9   10 1
    17    9   11 1
    18    9   12 1
    19   13   17 2
    20   13   14 1
    21   14   15 2
    22   15   16 1
    23   15   18 1
    24   16   17 1
    25   18   23 ar
    26   18   19 ar
    27   19   20 ar
    28   19   34 1
    29   20   21 ar
    30   20   26 1
    31   21   22 ar
    32   21   25 1
    33   22   23 ar
    34   22   24 1
    35   23   35 1
    36   24   36 1
    37   25   37 1
    38   26   27 2
    39   26   28 1
@<TRIPOS>MOLECULE
ZINC03196542
   34    35     0     0     0
SMALL
USER_CHARGES
2-[5-[(3-bromophenyl)methylene]-4-oxo-2-thioxo-thiazolidin-3-yl]pentanedioic acid
@<TRIPOS>ATOM
      1 C1         -1.1464    4.0047    0.9699 C.ar      1 <0>        -0.1047
      2 C2          0.0075    4.7031    0.6835 C.ar      1 <0>        -0.0822
      3 C3          1.1655    4.0116    0.3112 C.ar      1 <0>        -0.0604
      4 C4          1.1425    2.6147    0.2325 C.ar      1 <0>        -0.0625
      5 C5         -0.0198    1.9307    0.5222 C.ar      1 <0>        -0.0938
      6 C6         -1.1632    2.6236    0.8849 C.ar      1 <0>        -0.0819
      7 Br1        -0.0547    0.0430    0.4164 Br        1 <0>        -0.0542
      8 C7          2.3999    4.7487    0.0047 C.2       1 <0>         0.0246
      9 C8          2.3761    6.1013   -0.0907 C.2       1 <0>        -0.1830
     10 C9          3.4970    7.0572   -0.2165 C.2       1 <0>         0.5415
     11 O1          4.6549    6.6847   -0.2490 O.2       1 <0>        -0.4687
     12 N1          3.1764    8.3381   -0.2914 N.am      1 <0>        -0.4843
     13 C10         1.8918    8.7466   -0.2541 C.2       1 <0>         0.2771
     14 S1          1.2818   10.3441   -0.3362 S.2       1 <0>        -0.2604
     15 S2          0.9804    7.2182   -0.1066 S.3       1 <0>         0.0089
     16 C11         4.2414    9.3361   -0.4174 C.3       1 <0>         0.0657
     17 H1          5.2092    8.8350   -0.4314 H         1 <0>         0.1106
     18 C12         4.1822   10.2979    0.7711 C.3       1 <0>        -0.1066
     19 C13         4.4928    9.5350    2.0604 C.3       1 <0>        -0.1530
     20 C14         4.4345   10.4823    3.2310 C.2       1 <0>         0.4652
     21 O2          4.1715   11.6480    3.0523 O.co2     1 <0>        -0.6311
     22 C15         4.0571   10.1085   -1.6983 C.2       1 <0>         0.4794
     23 O3          3.1312    9.8515   -2.4308 O.co2     1 <0>        -0.6236
     24 H2         -2.0410    4.5374    1.2571 H         1 <0>         0.1401
     25 H3          0.0174    5.7813    0.7460 H         1 <0>         0.1442
     26 H4          2.0321    2.0737   -0.0545 H         1 <0>         0.1411
     27 H5         -2.0715    2.0828    1.1062 H         1 <0>         0.1347
     28 H6          3.3257    4.2131   -0.1446 H         1 <0>         0.1610
     29 H7          4.9161   11.0919    0.6328 H         1 <0>         0.0931
     30 H8          3.1848   10.7325    0.8374 H         1 <0>         0.0943
     31 H9          3.7589    8.7411    2.1986 H         1 <0>         0.0436
     32 H10         5.4902    9.1004    1.9941 H         1 <0>         0.0598
     33 O4          4.6748   10.0311    4.4721 O.co2     1 <0>        -0.7889
     34 O5          4.9216   11.0818   -2.0254 O.co2     1 <0>        -0.7456
@<TRIPOS>BOND
     1    1    6 ar
     2    1    2 ar
     3    1   24 1
     4    2    3 ar
     5    2   25 1
     6    3    4 ar
     7    3    8 1
     8    4    5 ar
     9    4   26 1
    10    5    6 ar
    11    5    7 1
    12    6   27 1
    13    8    9 2
    14    8   28 1
    15    9   15 1
    16    9   10 1
    17   10   11 2
    18   10   12 am
    19   12   13 1
    20   12   16 1
    21   13   14 2
    22   13   15 1
    23   16   17 1
    24   16   18 1
    25   16   22 1
    26   18   19 1
    27   18   29 1
    28   18   30 1
    29   19   20 1
    30   19   31 1
    31   19   32 1
    32   20   21 2
    33   20   33 1
    34   22   23 2
    35   22   34 1
@<TRIPOS>MOLECULE
ZINC16937568
   44    45     0     0     0
SMALL
USER_CHARGES
(2R)-2-[(5Z)-5-[[2-[(1S)-1-carboxypropoxy]phenyl]methylene]-4-oxo-2-thioxo-thiazolidin-3-yl]butanoic acid
@<TRIPOS>ATOM
      1 C1          0.7886    3.5181    1.0458 C.3       1 <0>        -0.1474
      2 C2          1.0651    2.0732    0.6255 C.3       1 <0>        -0.1346
      3 C3          1.7523    2.0623   -0.7415 C.3       1 <0>         0.0684
      4 H1          1.1445    2.6147   -1.4581 H         1 <0>         0.1118
      5 C4          1.9139    0.6395   -1.2111 C.2       1 <0>         0.4747
      6 O1          3.0167    0.1974   -1.4307 O.co2     1 <0>        -0.6110
      7 N1          3.0701    2.6926   -0.6306 N.am      1 <0>        -0.4913
      8 C5          3.3376    3.7634   -1.3591 C.2       1 <0>         0.5462
      9 O2          2.5166    4.2398   -2.1209 O.2       1 <0>        -0.4744
     10 C6          4.6810    4.3545   -1.1981 C.2       1 <0>        -0.2506
     11 C7          5.2269    5.4404   -1.8032 C.2       1 <0>         0.1083
     12 C8          6.5380    5.9394   -1.3714 C.ar      1 <0>        -0.1423
     13 C9          7.0553    5.5728   -0.1233 C.ar      1 <0>        -0.0532
     14 C10         8.2868    6.0450    0.2746 C.ar      1 <0>        -0.1718
     15 C11         9.0163    6.8818   -0.5545 C.ar      1 <0>        -0.0520
     16 C12         8.5184    7.2521   -1.7891 C.ar      1 <0>        -0.2091
     17 C13         7.2844    6.7833   -2.2101 C.ar      1 <0>         0.2060
     18 O3          6.7968    7.1423   -3.4248 O.3       1 <0>        -0.2861
     19 C14         7.6552    7.9155   -4.2658 C.3       1 <0>         0.0383
     20 H2          8.6889    7.6045   -4.1140 H         1 <0>         0.0758
     21 C15         7.2667    7.6974   -5.7295 C.3       1 <0>        -0.1022
     22 C16         7.5282    6.2399   -6.1148 C.3       1 <0>        -0.1509
     23 C17         7.5141    9.3757   -3.9209 C.2       1 <0>         0.4483
     24 O4          6.7562    9.7190   -3.0448 O.co2     1 <0>        -0.6141
     25 S1          5.3935    3.2431    0.0072 S.3       1 <0>         0.0263
     26 C18         3.9848    2.1645    0.2079 C.2       1 <0>         0.2980
     27 S2          3.8319    0.7925    1.2205 S.2       1 <0>        -0.3363
     28 H3          1.7295    4.0649    1.1077 H         1 <0>         0.0394
     29 H4          0.1403    3.9930    0.3094 H         1 <0>         0.0524
     30 H5          0.2991    3.5259    2.0196 H         1 <0>         0.0555
     31 H6          0.1242    1.5265    0.5635 H         1 <0>         0.0909
     32 H7          1.7135    1.5984    1.3618 H         1 <0>         0.0961
     33 H8          4.6964    5.9370   -2.6022 H         1 <0>         0.1609
     34 H9          6.4899    4.9213    0.5266 H         1 <0>         0.1379
     35 H10         8.6854    5.7618    1.2376 H         1 <0>         0.1268
     36 H11         9.9805    7.2474   -0.2335 H         1 <0>         0.1252
     37 H12         9.0939    7.9047   -2.4288 H         1 <0>         0.1347
     38 H13         6.2089    7.9241   -5.8623 H         1 <0>         0.0686
     39 H14         7.8616    8.3535   -6.3649 H         1 <0>         0.0896
     40 H15         7.2515    6.0845   -7.1575 H         1 <0>         0.0528
     41 H16         8.5861    6.0132   -5.9820 H         1 <0>         0.0495
     42 H17         6.9334    5.5838   -5.4793 H         1 <0>         0.0583
     43 O5          0.8327   -0.1366   -1.3855 O.co2     1 <0>        -0.7529
     44 O6          8.2305   10.2949   -4.5870 O.co2     1 <0>        -0.7604
@<TRIPOS>BOND
     1    1    2 1
     2    1   28 1
     3    1   29 1
     4    1   30 1
     5    2    3 1
     6    2   31 1
     7    2   32 1
     8    3    4 1
     9    3    5 1
    10    3    7 1
    11    5    6 2
    12    5   43 1
    13    7   26 1
    14    7    8 am
    15    8    9 2
    16    8   10 1
    17   10   11 2
    18   10   25 1
    19   11   12 1
    20   11   33 1
    21   12   17 ar
    22   12   13 ar
    23   13   14 ar
    24   13   34 1
    25   14   15 ar
    26   14   35 1
    27   15   16 ar
    28   15   36 1
    29   16   17 ar
    30   16   37 1
    31   17   18 1
    32   18   19 1
    33   19   20 1
    34   19   21 1
    35   19   23 1
    36   21   22 1
    37   21   38 1
    38   21   39 1
    39   22   40 1
    40   22   41 1
    41   22   42 1
    42   23   24 2
    43   23   44 1
    44   25   26 1
    45   26   27 2
@<TRIPOS>MOLECULE
ZINC00847222
   41    43     0     0     0
SMALL
USER_CHARGES

@<TRIPOS>ATOM
      1 C1         -0.0184    1.5028    0.0103 C.3       1 <0>        -0.1127
      2 C2          0.0021   -0.0041    0.0020 C.2       1 <0>         0.4781
      3 O1          0.0224   -0.6849    1.1667 O.3       1 <0>        -0.7352
      4 N1          0.0002   -0.6432   -1.1190 N.2       1 <0>        -1.0593
      5 S1          0.0226   -2.2990   -1.1281 S.o2      1 <0>         2.6480
      6 O2          1.2786   -2.6911   -0.5913 O.2       1 <0>        -1.0073
      7 O3         -1.2118   -2.7250   -0.5677 O.2       1 <0>        -1.0077
      8 C3          0.0136   -2.8109   -2.8141 C.ar      1 <0>        -0.6205
      9 C4         -1.1883   -3.0223   -3.4652 C.ar      1 <0>        -0.0270
     10 C5         -1.2027   -3.4227   -4.7852 C.ar      1 <0>        -0.1155
     11 C6         -0.0007   -3.6158   -5.4683 C.ar      1 <0>        -0.0254
     12 C7          1.2039   -3.4004   -4.8044 C.ar      1 <0>        -0.1099
     13 C8          1.2088   -2.9953   -3.4865 C.ar      1 <0>        -0.0048
     14 C9          2.3185   -3.6842   -5.7814 C.3       1 <0>        -0.0399
     15 C10         1.6489   -4.0839   -7.0733 C.ar      1 <0>        -0.1098
     16 C11         0.2732   -4.0364   -6.8648 C.ar      1 <0>        -0.0254
     17 C12        -0.5895   -4.3646   -7.9121 C.ar      1 <0>        -0.1155
     18 C13        -0.0757   -4.7314   -9.1386 C.ar      1 <0>        -0.0271
     19 C14         1.2926   -4.7757   -9.3361 C.ar      1 <0>        -0.6205
     20 C15         2.1536   -4.4513   -8.3026 C.ar      1 <0>        -0.0049
     21 S2          1.9401   -5.2453  -10.9060 S.o2      1 <0>         2.6477
     22 O4          3.2535   -5.7353  -10.6735 O.2       1 <0>        -1.0071
     23 O5          0.9373   -6.0258  -11.5420 O.2       1 <0>        -1.0079
     24 N2          2.1026   -3.8623  -11.8022 N.2       1 <0>        -1.0581
     25 C16         2.5619   -3.9241  -13.0065 C.2       1 <0>         0.4779
     26 O6          2.9097   -5.1155  -13.5356 O.3       1 <0>        -0.7360
     27 C17         2.7098   -2.6655  -13.8221 C.3       1 <0>        -0.1134
     28 H1          1.0042    1.8801    0.0026 H         1 <0>         0.0716
     29 H2         -0.5455    1.8639   -0.8728 H         1 <0>         0.0701
     30 H3         -0.5286    1.8543    0.9071 H         1 <0>         0.0645
     31 H4         -2.1191   -2.8737   -2.9380 H         1 <0>         0.1407
     32 H5         -2.1433   -3.5870   -5.2898 H         1 <0>         0.1284
     33 H6          2.1461   -2.8257   -2.9775 H         1 <0>         0.1402
     34 H7          2.9218   -2.7891   -5.9327 H         1 <0>         0.1048
     35 H8          2.9414   -4.4995   -5.4136 H         1 <0>         0.1028
     36 H9         -1.6585   -4.3317   -7.7620 H         1 <0>         0.1284
     37 H10        -0.7445   -4.9854   -9.9477 H         1 <0>         0.1407
     38 H11         3.2217   -4.4864   -8.4589 H         1 <0>         0.1403
     39 H12         2.3813   -1.8097  -13.2323 H         1 <0>         0.0698
     40 H13         3.7551   -2.5344  -14.1016 H         1 <0>         0.0688
     41 H14         2.0998   -2.7421  -14.7222 H         1 <0>         0.0684
@<TRIPOS>BOND
     1    1    2 1
     2    1   28 1
     3    1   29 1
     4    1   30 1
     5    2    3 1
     6    2    4 2
     7    4    5 1
     8    5    6 2
     9    5    7 2
    10    5    8 1
    11    8   13 ar
    12    8    9 ar
    13    9   10 ar
    14    9   31 1
    15   10   11 ar
    16   10   32 1
    17   11   16 1
    18   11   12 ar
    19   12   13 ar
    20   12   14 1
    21   13   33 1
    22   14   15 1
    23   14   34 1
    24   14   35 1
    25   15   20 ar
    26   15   16 ar
    27   16   17 ar
    28   17   18 ar
    29   17   36 1
    30   18   19 ar
    31   18   37 1
    32   19   20 ar
    33   19   21 1
    34   20   38 1
    35   21   22 2
    36   21   23 2
    37   21   24 1
    38   24   25 2
    39   25   26 1
    40   25   27 1
    41   27   39 1
    42   27   40 1
    43   27   41 1
@<TRIPOS>MOLECULE
ZINC15034804
   34    35     0     0     0
SMALL
USER_CHARGES

@<TRIPOS>ATOM
      1 C1          1.1901   -0.6410   -0.4098 C.ar      1 <0>        -0.0945
      2 C2          2.3637    0.0791   -0.4717 C.ar      1 <0>        -0.0819
      3 C3          2.3646    1.4347   -0.1863 C.ar      1 <0>        -0.0848
      4 C4          1.1880    2.0769    0.1633 C.ar      1 <0>        -0.0942
      5 C5          0.0065    1.3703    0.2300 C.ar      1 <0>        -0.0870
      6 C6         -0.0026    0.0007   -0.0574 C.ar      1 <0>        -0.0471
      7 C7         -1.2584   -0.7599    0.0105 C.2       1 <0>         0.0115
      8 C8         -1.2393   -2.1117   -0.0993 C.2       1 <0>        -0.1740
      9 C9         -2.3640   -3.0633   -0.2199 C.2       1 <0>         0.5379
     10 O1         -3.5213   -2.6874   -0.2335 O.2       1 <0>        -0.4752
     11 N1         -2.0481   -4.3441   -0.3126 N.am      1 <0>        -0.4793
     12 C10        -0.7642   -4.7562   -0.2975 C.2       1 <0>         0.2673
     13 S1         -0.1595   -6.3542   -0.4053 S.2       1 <0>        -0.2327
     14 S2          0.1531   -3.2318   -0.1460 S.3       1 <0>        -0.0011
     15 C11        -3.1174   -5.3381   -0.4340 C.3       1 <0>         0.0398
     16 H1         -4.0840   -4.8343   -0.4292 H         1 <0>         0.1020
     17 C12        -3.0442   -6.3123    0.7434 C.3       1 <0>        -0.1014
     18 C13        -3.3347   -5.5621    2.0449 C.3       1 <0>        -0.1771
     19 C14        -3.2626   -6.5217    3.2046 C.2       1 <0>         0.4950
     20 O2         -3.0029   -7.6967    3.0084 O.co2     1 <0>        -0.6902
     21 O3         -3.4640   -6.1231    4.3391 O.co2     1 <0>        -0.7188
     22 C15        -2.9531   -6.0974   -1.7253 C.2       1 <0>         0.5075
     23 O4         -1.9366   -5.9650   -2.3853 O.co2     1 <0>        -0.6721
     24 O5         -3.8367   -6.8443   -2.1099 O.co2     1 <0>        -0.6814
     25 Br1         3.9803    2.4132   -0.2736 Br        1 <0>        -0.0567
     26 H2          1.1902   -1.6969   -0.6369 H         1 <0>         0.1468
     27 H3          3.2850   -0.4147   -0.7431 H         1 <0>         0.1389
     28 H4          1.1966    3.1340    0.3844 H         1 <0>         0.1354
     29 H5         -0.9098    1.8723    0.5033 H         1 <0>         0.1406
     30 H6         -2.1964   -0.2424    0.1478 H         1 <0>         0.1601
     31 H7         -3.7821   -7.1029    0.6073 H         1 <0>         0.0843
     32 H8         -2.0471   -6.7502    0.7913 H         1 <0>         0.0937
     33 H9         -2.5968   -4.7715    2.1810 H         1 <0>         0.0376
     34 H10        -4.3317   -5.1243    1.9971 H         1 <0>         0.0513
@<TRIPOS>BOND
     1    1    6 ar
     2    1    2 ar
     3    1   26 1
     4    2    3 ar
     5    2   27 1
     6    3    4 ar
     7    3   25 1
     8    4    5 ar
     9    4   28 1
    10    5    6 ar
    11    5   29 1
    12    6    7 1
    13    7    8 2
    14    7   30 1
    15    8   14 1
    16    8    9 1
    17    9   10 2
    18    9   11 am
    19   11   12 1
    20   11   15 1
    21   12   13 2
    22   12   14 1
    23   15   16 1
    24   15   17 1
    25   15   22 1
    26   17   18 1
    27   17   31 1
    28   17   32 1
    29   18   19 1
    30   18   33 1
    31   18   34 1
    32   19   20 2
    33   19   21 1
    34   22   23 2
    35   22   24 1
@<TRIPOS>MOLECULE
ZINC32088387
   37    38     0     0     0
SMALL
USER_CHARGES

@<TRIPOS>ATOM
      1 C1         -0.0173    1.4248    0.0099 C.3       1 <0>         0.0333
      2 O1          0.0021   -0.0041    0.0020 O.3       1 <0>        -0.2997
      3 C2         -1.2012   -0.6380    0.0101 C.ar      1 <0>         0.0892
      4 C3         -2.3732    0.0995    0.0195 C.ar      1 <0>        -0.2187
      5 C4         -3.6006   -0.5496    0.0278 C.ar      1 <0>         0.2203
      6 C5         -3.6529   -1.9371    0.0267 C.ar      1 <0>        -0.2355
      7 C6         -2.4839   -2.6744    0.0177 C.ar      1 <0>        -0.1739
      8 C7         -1.2562   -2.0297    0.0032 C.ar      1 <0>         0.1836
      9 N1         -0.0702   -2.7788   -0.0127 N.2       1 <0>        -1.0897
     10 S1         -0.1361   -4.4335   -0.0210 S.o2      1 <0>         2.5031
     11 O2         -0.7406   -4.7785    1.2179 O.2       1 <0>        -1.0425
     12 O3         -0.7653   -4.7652   -1.2512 O.2       1 <0>        -1.0427
     13 C8          1.5969   -4.9690   -0.0412 C.3       1 <0>        -0.6361
     14 N2         -4.7858    0.1952    0.0378 N.2       1 <0>        -1.0868
     15 S2         -6.2499   -0.5786    0.0477 S.o2      1 <0>         2.5761
     16 O4         -6.3609   -1.2536   -1.1978 O.2       1 <0>        -1.0269
     17 O5         -6.3422   -1.2572    1.2928 O.2       1 <0>        -1.0208
     18 C9         -7.4969    0.6661    0.0589 C.ar      1 <0>        -0.6319
     19 C10        -8.3551    0.7938   -1.0174 C.ar      1 <0>         0.0141
     20 C11        -9.3341    1.7693   -1.0110 C.ar      1 <0>        -0.1648
     21 C12        -9.4572    2.6208    0.0737 C.ar      1 <0>         0.1232
     22 C13        -8.5979    2.4945    1.1536 C.ar      1 <0>         0.0009
     23 C14        -7.6203    1.5117    1.1477 C.ar      1 <0>         0.2046
     24 F1         -6.7852    1.3827    2.2018 F         1 <0>        -0.0906
     25 F2         -8.7161    3.3247    2.2128 F         1 <0>        -0.1221
     26 F3        -10.4140    3.5745    0.0793 F         1 <0>        -0.1243
     27 H1          1.0053    1.8021    0.0021 H         1 <0>         0.0715
     28 H2         -0.5445    1.7859   -0.8732 H         1 <0>         0.0383
     29 H3         -0.5275    1.7763    0.9067 H         1 <0>         0.0385
     30 H4         -2.3327    1.1788    0.0208 H         1 <0>         0.1065
     31 H5         -4.6082   -2.4407    0.0331 H         1 <0>         0.0817
     32 H6         -2.5267   -3.7536    0.0172 H         1 <0>         0.0940
     33 H7          2.1046   -4.5901    0.8458 H         1 <0>         0.1090
     34 H8          1.6406   -6.0581   -0.0475 H         1 <0>         0.0888
     35 H9          2.0868   -4.5805   -0.9341 H         1 <0>         0.1090
     36 H10        -8.2602    0.1306   -1.8644 H         1 <0>         0.1664
     37 H11       -10.0034    1.8677   -1.8530 H         1 <0>         0.1546
@<TRIPOS>BOND
     1    1    2 1
     2    1   27 1
     3    1   28 1
     4    1   29 1
     5    2    3 1
     6    3    8 ar
     7    3    4 ar
     8    4    5 ar
     9    4   30 1
    10    5    6 ar
    11    5   14 1
    12    6    7 ar
    13    6   31 1
    14    7    8 ar
    15    7   32 1
    16    8    9 1
    17    9   10 1
    18   10   11 2
    19   10   12 2
    20   10   13 1
    21   13   33 1
    22   13   34 1
    23   13   35 1
    24   14   15 1
    25   15   16 2
    26   15   17 2
    27   15   18 1
    28   18   23 ar
    29   18   19 ar
    30   19   20 ar
    31   19   36 1
    32   20   21 ar
    33   20   37 1
    34   21   22 ar
    35   21   26 1
    36   22   23 ar
    37   22   25 1
    38   23   24 1
@<TRIPOS>MOLECULE
ZINC05046216
   24    25     0     0     0
SMALL
USER_CHARGES
2-oxobicyclo[3.2.2]nona-3,9-diene-6,7-dicarboxylic acid
@<TRIPOS>ATOM
      1 C1          2.1376    2.3043   -1.3555 C.2       1 <0>        -0.1468
      2 C2          2.5318    1.0618   -1.5761 C.2       1 <0>        -0.1514
      3 C3          2.0819    0.0217   -0.5740 C.3       1 <0>        -0.0810
      4 H1          2.5925   -0.8255   -0.7209 H         1 <0>         0.0717
      5 C4          2.3597    0.4951    0.8395 C.3       1 <0>        -0.1058
      6 H2          3.4310    0.4303    1.0295 H         1 <0>         0.0633
      7 C5          1.9053    1.8987    1.1017 C.3       1 <0>        -0.1047
      8 H3          2.7626    2.4929    1.4181 H         1 <0>         0.0618
      9 C6          1.2917    2.5392   -0.1258 C.3       1 <0>        -0.0254
     10 H4          1.2536    3.6135    0.0543 H         1 <0>         0.0639
     11 C7         -0.1128    2.0612   -0.3669 C.2       1 <0>        -0.0269
     12 C8         -0.3801    0.7884   -0.6348 C.2       1 <0>        -0.1977
     13 C9          0.6175   -0.2603   -0.7792 C.2       1 <0>         0.4473
     14 O1          0.2628   -1.3833   -1.0708 O.2       1 <0>        -0.5049
     15 C10         0.8835    1.8898    2.2093 C.2       1 <0>         0.4757
     16 O2         -0.2389    1.4985    1.9927 O.co2     1 <0>        -0.6050
     17 C11         1.6391   -0.4077    1.8073 C.2       1 <0>         0.4710
     18 O3          0.5774   -0.8967    1.5013 O.co2     1 <0>        -0.5972
     19 H5          2.4064    3.1110   -2.0213 H         1 <0>         0.1149
     20 H6          3.1431    0.8026   -2.4279 H         1 <0>         0.1144
     21 H7         -0.9249    2.7720   -0.3257 H         1 <0>         0.1043
     22 H8         -1.4169    0.5108   -0.7548 H         1 <0>         0.1021
     23 O4          1.2203    2.3167    3.4365 O.co2     1 <0>        -0.7770
     24 O5          2.1766   -0.6686    3.0093 O.co2     1 <0>        -0.7667
@<TRIPOS>BOND
     1    1    9 1
     2    1    2 2
     3    1   19 1
     4    2    3 1
     5    2   20 1
     6    3    4 1
     7    3   13 1
     8    3    5 1
     9    5    6 1
    10    5    7 1
    11    5   17 1
    12    7    8 1
    13    7    9 1
    14    7   15 1
    15    9   10 1
    16    9   11 1
    17   11   12 2
    18   11   21 1
    19   12   13 1
    20   12   22 1
    21   13   14 2
    22   15   16 2
    23   15   23 1
    24   17   18 2
    25   17   24 1
@<TRIPOS>MOLECULE
ZINC02026689
   15    15     0     0     0
SMALL
USER_CHARGES
4-[(E)-3-hydroxy-3-oxo-prop-1-enyl]-1,2,5-thiadiazole-3-carboxylic acid
@<TRIPOS>ATOM
      1 C1         -2.7007   -0.1801    0.0020 C.2       1 <0>        -0.0735
      2 C2         -3.9322   -0.7313   -0.0003 C.2       1 <0>        -0.1383
      3 C3         -4.0824   -2.1864   -0.0138 C.2       1 <0>         0.4796
      4 O1         -3.0971   -2.8993   -0.0229 O.co2     1 <0>        -0.6256
      5 C4         -2.5497    1.2832    0.0156 C.2       1 <0>         0.1191
      6 C5         -1.3025    1.9312    0.0187 C.2       1 <0>         0.0345
      7 N1         -1.3968    3.2463    0.0258 N.2       1 <0>        -0.4774
      8 S1         -2.9372    3.5549    0.0344 S.3       1 <0>         0.5047
      9 N2         -3.5720    2.1179    0.0300 N.2       1 <0>        -0.5382
     10 C6         -0.0144    1.2107    0.0087 C.2       1 <0>         0.5323
     11 O2          0.0021   -0.0041    0.0020 O.co2     1 <0>        -0.5888
     12 H1         -1.8258   -0.8132   -0.0061 H         1 <0>         0.1754
     13 H2         -4.8072   -0.0982    0.0079 H         1 <0>         0.1054
     14 O3         -5.3137   -2.7375   -0.0160 O.co2     1 <0>        -0.7767
     15 O4          1.1432    1.9002    0.0013 O.co2     1 <0>        -0.7322
@<TRIPOS>BOND
     1    1    2 2
     2    1    5 1
     3    1   12 1
     4    2    3 1
     5    2   13 1
     6    3    4 2
     7    3   14 1
     8    5    9 2
     9    5    6 1
    10    6    7 2
    11    6   10 1
    12    7    8 1
    13    8    9 1
    14   10   11 2
    15   10   15 1
@<TRIPOS>MOLECULE
ZINC17112014
   31    34     0     0     0
SMALL
USER_CHARGES

@<TRIPOS>ATOM
      1 C1          0.1768    1.0816   -0.4529 C.3       1 <0>        -0.1559
      2 C2          0.1029   -0.4206   -0.1723 C.3       1 <0>         0.1379
      3 H1          0.5897   -0.9777   -0.9727 H         1 <0>         0.0825
      4 C3         -1.3669   -0.8653   -0.0300 C.3       1 <0>        -0.0697
      5 C4         -1.4620   -1.4082    1.3760 C.ar      1 <0>        -0.1732
      6 C5         -2.4813   -1.9550    2.1251 C.ar      1 <0>        -0.0599
      7 C6         -2.2428   -2.3711    3.4294 C.ar      1 <0>        -0.1882
      8 C7         -0.9919   -2.2488    4.0016 C.ar      1 <0>        -0.0339
      9 C8          0.0440   -1.6965    3.2502 C.ar      1 <0>        -0.1761
     10 C9         -0.2110   -1.2829    1.9420 C.ar      1 <0>         0.1913
     11 N1          0.7357   -0.7294    1.1219 N.pl3     1 <0>        -0.5168
     12 C10         2.0044   -0.5534    1.5590 C.2       1 <0>         0.5200
     13 C11         2.3980   -0.9247    2.8461 C.2       1 <0>        -0.4931
     14 C12         1.4137   -1.5227    3.7699 C.2       1 <0>         0.4374
     15 O1          1.7181   -1.8585    4.9013 O.2       1 <0>        -0.5354
     16 C13         3.7817   -0.7172    3.2785 C.2       1 <0>         0.5752
     17 O2          4.2174    0.4122    3.4030 O.2       1 <0>        -0.4980
     18 C14         4.6504   -1.8814    3.5642 C.2       1 <0>         0.0243
     19 N2          5.8881   -1.8508    4.0603 N.2       1 <0>        -0.3539
     20 N3          6.2959   -3.0698    4.1595 N.2       1 <0>        -0.2131
     21 N4          5.3693   -3.8623    3.7477 N.2       1 <0>        -0.2117
     22 N5          4.3470   -3.1673    3.3814 N.2       1 <0>        -0.3283
     23 O3          2.9126   -0.0053    0.7292 O.3       1 <0>        -0.6772
     24 H2          1.2208    1.3906   -0.5046 H         1 <0>         0.0785
     25 H3         -0.3137    1.2986   -1.4017 H         1 <0>         0.0593
     26 H4         -0.3240    1.6259    0.3478 H         1 <0>         0.0546
     27 H5         -2.0359   -0.0140   -0.1553 H         1 <0>         0.0831
     28 H6         -1.6008   -1.6444   -0.7554 H         1 <0>         0.0813
     29 H7         -3.4676   -2.0601    1.6978 H         1 <0>         0.1150
     30 H8         -3.0501   -2.7981    4.0059 H         1 <0>         0.1153
     31 H9         -0.8190   -2.5760    5.0162 H         1 <0>         0.1288
@<TRIPOS>BOND
     1    1    2 1
     2    1   24 1
     3    1   25 1
     4    1   26 1
     5    2    3 1
     6    2   11 1
     7    2    4 1
     8    4    5 1
     9    4   27 1
    10    4   28 1
    11    5   10 ar
    12    5    6 ar
    13    6    7 ar
    14    6   29 1
    15    7    8 ar
    16    7   30 1
    17    8    9 ar
    18    8   31 1
    19    9   14 1
    20    9   10 ar
    21   10   11 1
    22   11   12 1
    23   12   13 2
    24   12   23 1
    25   13   14 1
    26   13   16 1
    27   14   15 2
    28   16   17 2
    29   16   18 1
    30   18   19 1
    31   18   22 2
    32   19   20 1
    33   20   21 2
    34   21   22 1
@<TRIPOS>MOLECULE
ZINC41018410
   25    25     0     0     0
SMALL
USER_CHARGES

@<TRIPOS>ATOM
      1 C1         -0.0178    1.4608    0.0101 C.3       1 <0>         0.0963
      2 N1          0.0021   -0.0041    0.0020 N.pl3     1 <0>        -1.0061
      3 C2          0.0241   -0.7433    1.2666 C.3       1 <0>         0.1037
      4 S1         -0.0004   -0.8243   -1.4366 S.o2      1 <0>         2.7467
      5 O1         -0.5312   -2.1147   -1.1675 O.2       1 <0>        -1.0262
      6 O2         -0.5723    0.0488   -2.4009 O.2       1 <0>        -1.0269
      7 N2          1.5806   -1.0453   -1.8769 N.2       1 <0>        -1.0487
      8 C3          1.8866   -1.7124   -3.0573 C.2       1 <0>         0.4270
      9 N3          1.0755   -2.2338   -3.9567 N.2       1 <0>        -0.4569
     10 N4          1.5949   -2.8580   -5.0672 N.2       1 <0>        -0.2856
     11 C4          2.9023   -2.9320   -5.2270 C.2       1 <0>         0.0118
     12 S2          3.4835   -2.0856   -3.7653 S.3       1 <0>        -0.0987
     13 S3          3.8276   -3.6643   -6.5355 S.3       1 <0>         0.0476
     14 C5          2.5603   -4.3179   -7.6569 C.3       1 <0>        -0.1677
     15 C6          3.2258   -4.9798   -8.8358 C.2       1 <0>         0.5174
     16 O3          4.4423   -5.0081   -8.9125 O.co2     1 <0>        -0.6785
     17 O4          2.5477   -5.4871   -9.7130 O.co2     1 <0>        -0.6879
     18 H1          1.0048    1.8381    0.0023 H         1 <0>         0.0478
     19 H2         -0.5450    1.8219   -0.8730 H         1 <0>         0.0753
     20 H3         -0.5280    1.8123    0.9069 H         1 <0>         0.0596
     21 H4          0.0224   -0.0395    2.0990 H         1 <0>         0.0655
     22 H5         -0.8567   -1.3823    1.3294 H         1 <0>         0.0553
     23 H6          0.9230   -1.3581    1.3125 H         1 <0>         0.0556
     24 H7          1.9485   -5.0484   -7.1276 H         1 <0>         0.0869
     25 H8          1.9291   -3.5012   -8.0073 H         1 <0>         0.0868
@<TRIPOS>BOND
     1    1    2 1
     2    1   18 1
     3    1   19 1
     4    1   20 1
     5    2    3 1
     6    2    4 1
     7    3   21 1
     8    3   22 1
     9    3   23 1
    10    4    5 2
    11    4    6 2
    12    4    7 1
    13    7    8 1
    14    8   12 1
    15    8    9 2
    16    9   10 1
    17   10   11 2
    18   11   12 1
    19   11   13 1
    20   13   14 1
    21   14   15 1
    22   14   24 1
    23   14   25 1
    24   15   16 2
    25   15   17 1
@<TRIPOS>MOLECULE
ZINC13125171
   37    38     0     0     0
SMALL
USER_CHARGES

@<TRIPOS>ATOM
      1 C1         -0.0173    1.4248    0.0099 C.3       1 <0>         0.0515
      2 O1          0.0021   -0.0041    0.0020 O.3       1 <0>        -0.3839
      3 C2          0.6015   -0.6028   -1.0481 C.2       1 <0>         0.4812
      4 O2          1.0942    0.0715   -1.9329 O.2       1 <0>        -0.5746
      5 C3          0.6571   -2.0154   -1.1204 C.2       1 <0>        -0.4652
      6 C4          1.2614   -2.5716   -2.1692 C.2       1 <0>         0.3746
      7 C5          1.3855   -4.0533   -2.3699 C.3       1 <0>        -0.1267
      8 C6          0.3530   -4.5206   -3.4007 C.3       1 <0>         0.0323
      9 C7         -1.0292   -4.3974   -2.8260 C.2       1 <0>        -0.4652
     10 C8         -1.2716   -4.2799   -1.5214 C.2       1 <0>         0.3747
     11 C9         -0.1978   -4.2528   -0.4739 C.3       1 <0>        -0.1267
     12 C10         0.0369   -2.8112   -0.0077 C.3       1 <0>         0.0322
     13 C11         1.1171   -4.7888   -1.0519 C.3       1 <0>        -0.0385
     14 C12        -0.6184   -5.0980    0.7007 C.2       1 <0>         0.5193
     15 O3         -1.6950   -5.6702    0.6856 O.co2     1 <0>        -0.6889
     16 O4          0.1178   -5.2096    1.6661 O.co2     1 <0>        -0.7416
     17 O5         -2.5543   -4.1793   -1.1196 O.3       1 <0>        -0.6419
     18 C13        -2.1301   -4.4060   -3.7159 C.2       1 <0>         0.4812
     19 O6         -3.2630   -4.3080   -3.2830 O.2       1 <0>        -0.5746
     20 O7         -1.9231   -4.5229   -5.0440 O.3       1 <0>        -0.3838
     21 C14        -3.0798   -4.5244   -5.8832 C.3       1 <0>         0.0515
     22 C15         2.7736   -4.3813   -2.8563 C.2       1 <0>         0.5195
     23 O8          3.5874   -3.4891   -3.0241 O.co2     1 <0>        -0.6889
     24 O9          3.0828   -5.5388   -3.0820 O.co2     1 <0>        -0.7415
     25 O10         1.7912   -1.7570   -3.1034 O.3       1 <0>        -0.6422
     26 H1          1.0053    1.8021    0.0021 H         1 <0>         0.0276
     27 H2         -0.5445    1.7859   -0.8732 H         1 <0>         0.0284
     28 H3         -0.5275    1.7763    0.9067 H         1 <0>         0.0580
     29 H4          0.4298   -3.9037   -4.2960 H         1 <0>         0.0206
     30 H5          0.5460   -5.5613   -3.6609 H         1 <0>         0.0162
     31 H6          0.7035   -2.8092    0.8547 H         1 <0>         0.0166
     32 H7         -0.9166   -2.3626    0.2711 H         1 <0>         0.0203
     33 H8          1.0295   -5.8592   -1.2380 H         1 <0>         0.0321
     34 H9          1.9314   -4.6008   -0.3521 H         1 <0>         0.0322
     35 H10        -2.7731   -4.6242   -6.9244 H         1 <0>         0.0580
     36 H11        -3.7240   -5.3609   -5.6124 H         1 <0>         0.0276
     37 H12        -3.6244   -3.5893   -5.7529 H         1 <0>         0.0285
@<TRIPOS>BOND
     1    1    2 1
     2    1   26 1
     3    1   27 1
     4    1   28 1
     5    2    3 1
     6    3    4 2
     7    3    5 1
     8    5   12 1
     9    5    6 2
    10    6    7 1
    11    6   25 1
    12    7   13 1
    13    7    8 1
    14    7   22 1
    15    8    9 1
    16    8   29 1
    17    8   30 1
    18    9   10 2
    19    9   18 1
    20   10   11 1
    21   10   17 1
    22   11   12 1
    23   11   13 1
    24   11   14 1
    25   12   31 1
    26   12   32 1
    27   13   33 1
    28   13   34 1
    29   14   15 2
    30   14   16 1
    31   18   19 2
    32   18   20 1
    33   20   21 1
    34   21   35 1
    35   21   36 1
    36   21   37 1
    37   22   23 2
    38   22   24 1
@<TRIPOS>MOLECULE
ZINC03120960
   23    23     0     0     0
SMALL
USER_CHARGES
2,6-dicarbamoylpyridine-3,5-dicarboxylic acid
@<TRIPOS>ATOM
      1 C1          2.3851   -0.5809    0.0599 C.ar      1 <0>        -0.0231
      2 C2          3.5832   -1.2943   -0.0262 C.ar      1 <0>        -0.1143
      3 C3          4.7949   -0.5872   -0.1134 C.ar      1 <0>         0.0856
      4 N1          4.8088    0.7350   -0.1196 N.ar      1 <0>        -0.4515
      5 C4          3.6963    1.4458   -0.0448 C.ar      1 <0>         0.0717
      6 C5          2.4433    0.8149    0.0450 C.ar      1 <0>        -0.0881
      7 C6          1.2032    1.6184    0.1288 C.2       1 <0>         0.5081
      8 O1          1.0756    2.4483    1.0059 O.co2     1 <0>        -0.5982
      9 C7          3.7715    2.9287   -0.0554 C.2       1 <0>         0.5678
     10 O2          2.7567    3.5890    0.0425 O.2       1 <0>        -0.4787
     11 N2          4.9658    3.5420   -0.1736 N.am      1 <0>        -0.8531
     12 C8          6.0753   -1.3343   -0.1992 C.2       1 <0>         0.6203
     13 O3          6.3985   -1.8677   -1.2416 O.2       1 <0>        -0.5221
     14 N3          6.8787   -1.4207    0.8795 N.am      1 <0>        -0.8482
     15 C9          3.5771   -2.7743   -0.0200 C.2       1 <0>         0.4930
     16 O4          4.6123   -3.3864   -0.1878 O.co2     1 <0>        -0.6083
     17 H1          1.4381   -1.0951    0.1322 H         1 <0>         0.1534
     18 H2          5.7762    3.0147   -0.2517 H         1 <0>         0.4027
     19 H3          5.0149    4.5108   -0.1805 H         1 <0>         0.3932
     20 H4          6.6206   -0.9947    1.7118 H         1 <0>         0.3956
     21 H5          7.7151   -1.9087    0.8234 H         1 <0>         0.3959
     22 O5          0.2162    1.4290   -0.7679 O.co2     1 <0>        -0.7577
     23 O6          2.4233   -3.4422    0.1718 O.co2     1 <0>        -0.7442
@<TRIPOS>BOND
     1    1    6 ar
     2    1    2 ar
     3    1   17 1
     4    2    3 ar
     5    2   15 1
     6    3    4 ar
     7    3   12 1
     8    4    5 ar
     9    5    6 ar
    10    5    9 1
    11    6    7 1
    12    7    8 2
    13    7   22 1
    14    9   10 2
    15    9   11 am
    16   11   18 1
    17   11   19 1
    18   12   13 2
    19   12   14 am
    20   14   20 1
    21   14   21 1
    22   15   16 2
    23   15   23 1
@<TRIPOS>MOLECULE
ZINC37584283
   33    33     0     0     0
SMALL
USER_CHARGES

@<TRIPOS>ATOM
      1 C1         -0.0184    1.5028    0.0103 C.3       1 <0>        -0.1643
      2 C2          0.0021   -0.0041    0.0020 C.2       1 <0>         0.4934
      3 O1          1.0605   -0.5961   -0.0113 O.2       1 <0>        -0.5001
      4 N1         -1.1558   -0.6938    0.0094 N.am      1 <0>        -0.6196
      5 C3         -1.1370   -2.0831    0.0017 C.2       1 <0>        -0.0198
      6 C4         -2.2099   -2.9437    0.0017 C.2       1 <0>        -0.2226
      7 C5         -1.9698   -4.2932   -0.0074 C.2       1 <0>        -0.0751
      8 C6         -0.6345   -4.6725   -0.0160 C.2       1 <0>        -0.2542
      9 S1          0.2014   -3.0982   -0.0171 S.3       1 <0>         0.3166
     10 C7         -0.0614   -6.0168   -0.0267 C.2       1 <0>         0.5979
     11 O2         -0.7927   -6.9904   -0.0290 O.2       1 <0>        -0.5466
     12 N2          1.2765   -6.1790   -0.0341 N.am      1 <0>        -0.6748
     13 C8          1.8510   -7.5266   -0.0448 C.3       1 <0>         0.0729
     14 H1          1.2163   -8.1875   -0.6352 H         1 <0>         0.0799
     15 C9          3.2507   -7.4795   -0.6609 C.3       1 <0>        -0.0810
     16 C10         3.1470   -7.0720   -2.1319 C.3       1 <0>        -0.1790
     17 C11         4.5257   -7.0255   -2.7387 C.2       1 <0>         0.4916
     18 O3          5.5008   -7.2935   -2.0577 O.co2     1 <0>        -0.6971
     19 O4          4.6660   -6.7199   -3.9106 O.co2     1 <0>        -0.7205
     20 C12         1.9408   -8.0457    1.3671 C.2       1 <0>         0.4961
     21 O5          1.5602   -7.3540    2.2962 O.co2     1 <0>        -0.6960
     22 O6          2.3940   -9.1573    1.5803 O.co2     1 <0>        -0.6996
     23 H2          1.0042    1.8801    0.0026 H         1 <0>         0.1000
     24 H3         -0.5455    1.8639   -0.8728 H         1 <0>         0.0916
     25 H4         -0.5286    1.8543    0.9071 H         1 <0>         0.0914
     26 H5         -2.0023   -0.2203    0.0200 H         1 <0>         0.4152
     27 H6         -3.2209   -2.5640    0.0092 H         1 <0>         0.1295
     28 H7         -2.7710   -5.0175   -0.0076 H         1 <0>         0.1456
     29 H8          1.8591   -5.4034   -0.0322 H         1 <0>         0.3887
     30 H9          3.8595   -6.7518   -0.1243 H         1 <0>         0.0561
     31 H10         3.7130   -8.4639   -0.5883 H         1 <0>         0.0803
     32 H11         2.5382   -7.7997   -2.6685 H         1 <0>         0.0527
     33 H12         2.6848   -6.0875   -2.2045 H         1 <0>         0.0506
@<TRIPOS>BOND
     1    1    2 1
     2    1   23 1
     3    1   24 1
     4    1   25 1
     5    2    3 2
     6    2    4 am
     7    4    5 1
     8    4   26 1
     9    5    9 1
    10    5    6 2
    11    6    7 1
    12    6   27 1
    13    7    8 2
    14    7   28 1
    15    8    9 1
    16    8   10 1
    17   10   11 2
    18   10   12 am
    19   12   13 1
    20   12   29 1
    21   13   14 1
    22   13   15 1
    23   13   20 1
    24   15   16 1
    25   15   30 1
    26   15   31 1
    27   16   17 1
    28   16   32 1
    29   16   33 1
    30   17   18 2
    31   17   19 1
    32   20   21 2
    33   20   22 1
@<TRIPOS>MOLECULE
ZINC40546803
   27    26     0     0     0
SMALL
USER_CHARGES

@<TRIPOS>ATOM
      1 C1         -0.0187    1.5258    0.0104 C.3       1 <0>        -0.0827
      2 C2          0.0021   -0.0041    0.0020 C.3       1 <0>        -0.1762
      3 C3         -1.4117   -0.5257    0.0127 C.2       1 <0>         0.4904
      4 O1         -2.3491    0.2539    0.0259 O.co2     1 <0>        -0.6977
      5 O2         -1.6182   -1.7273    0.0082 O.co2     1 <0>        -0.7200
      6 C4          1.4167    2.0553   -0.0004 C.3       1 <0>         0.0917
      7 H1          1.9535    1.6326   -0.8497 H         1 <0>         0.0772
      8 C5          1.3970    3.5578   -0.1160 C.2       1 <0>         0.4966
      9 O3          1.3672    4.2462    0.8898 O.co2     1 <0>        -0.6996
     10 O4          1.4108    4.0849   -1.2153 O.co2     1 <0>        -0.7020
     11 N1          2.0888    1.6700    1.2430 N.am      1 <0>        -0.6947
     12 C6          3.4317    1.5612    1.2773 C.2       1 <0>         0.7089
     13 O5          4.0854    1.7828    0.2764 O.2       1 <0>        -0.5946
     14 N2          4.0500    1.2067    2.4212 N.am      1 <0>        -0.7552
     15 C7          5.5098    1.0884    2.4586 C.3       1 <0>         0.1042
     16 C8          5.9523    0.6764    3.8640 C.3       1 <0>         0.4477
     17 F1          5.3760   -0.5555    4.1919 F         1 <0>        -0.1791
     18 F2          7.3462    0.5634    3.8997 F         1 <0>        -0.1796
     19 F3          5.5391    1.6445    4.7856 F         1 <0>        -0.1784
     20 H2         -0.5459    1.8868   -0.8726 H         1 <0>         0.0734
     21 H3         -0.5289    1.8773    0.9072 H         1 <0>         0.0606
     22 H4          0.5123   -0.3556   -0.8948 H         1 <0>         0.0526
     23 H5          0.5293   -0.3651    0.8851 H         1 <0>         0.0512
     24 H6          1.5673    1.4932    2.0415 H         1 <0>         0.3907
     25 H7          3.5285    1.0299    3.2198 H         1 <0>         0.3986
     26 H8          5.8317    0.3341    1.7406 H         1 <0>         0.1076
     27 H9          5.9587    2.0483    2.2031 H         1 <0>         0.1081
@<TRIPOS>BOND
     1    1    2 1
     2    1    6 1
     3    1   20 1
     4    1   21 1
     5    2    3 1
     6    2   22 1
     7    2   23 1
     8    3    4 2
     9    3    5 1
    10    6    7 1
    11    6    8 1
    12    6   11 1
    13    8    9 2
    14    8   10 1
    15   11   12 am
    16   11   24 1
    17   12   13 2
    18   12   14 am
    19   14   15 1
    20   14   25 1
    21   15   16 1
    22   15   26 1
    23   15   27 1
    24   16   17 1
    25   16   18 1
    26   16   19 1
@<TRIPOS>MOLECULE
ZINC49188311
   37    37     0     0     0
SMALL
USER_CHARGES

@<TRIPOS>ATOM
      1 C1         -0.0184    1.5028    0.0103 C.3       1 <0>        -0.0651
      2 C2          0.0021   -0.0041    0.0020 C.2       1 <0>        -0.1585
      3 C3         -1.0392   -0.8719    0.0017 C.2       1 <0>        -0.1562
      4 C4         -0.7802   -2.2296   -0.0075 C.2       1 <0>        -0.1554
      5 C5          0.5074   -2.6532   -0.0160 C.2       1 <0>        -0.1316
      6 S1          1.4039   -1.1093   -0.0179 S.3       1 <0>         0.0443
      7 C6          1.0430   -4.0617   -0.0269 C.3       1 <0>         0.2469
      8 H1          0.2712   -4.7467    0.3242 H         1 <0>         0.1077
      9 C7          1.4518   -4.4409   -1.4516 C.3       1 <0>        -0.1572
     10 N1          2.2097   -4.1473    0.8550 N.am      1 <0>        -0.7521
     11 C8          2.5528   -5.3284    1.4061 C.2       1 <0>         0.7129
     12 O1          1.8939   -6.3230    1.1712 O.2       1 <0>        -0.5998
     13 N2          3.6261   -5.4072    2.2174 N.am      1 <0>        -0.6993
     14 C9          3.9990   -6.6911    2.8164 C.3       1 <0>         0.0916
     15 H2          3.7839   -7.4960    2.1135 H         1 <0>         0.0759
     16 C10         5.4934   -6.6861    3.1442 C.3       1 <0>        -0.0802
     17 C11         6.2998   -6.5951    1.8471 C.3       1 <0>        -0.1761
     18 C12         7.7718   -6.5902    2.1700 C.2       1 <0>         0.4905
     19 O2          8.1416   -6.6535    3.3300 O.co2     1 <0>        -0.6974
     20 O3          8.5928   -6.5229    1.2712 O.co2     1 <0>        -0.7212
     21 C13         3.2079   -6.9039    4.0813 C.2       1 <0>         0.4941
     22 O4          2.4069   -6.0612    4.4484 O.co2     1 <0>        -0.6980
     23 O5          3.3689   -7.9188    4.7375 O.co2     1 <0>        -0.7031
     24 H3          1.0042    1.8801    0.0026 H         1 <0>         0.0704
     25 H4         -0.5455    1.8639   -0.8728 H         1 <0>         0.0753
     26 H5         -0.5286    1.8543    0.9071 H         1 <0>         0.0767
     27 H6         -2.0560   -0.5079    0.0090 H         1 <0>         0.1287
     28 H7         -1.5916   -2.9424   -0.0076 H         1 <0>         0.1338
     29 H8          1.8393   -5.4597   -1.4595 H         1 <0>         0.0744
     30 H9          0.5838   -4.3773   -2.1078 H         1 <0>         0.0616
     31 H10         2.2236   -3.7560   -1.8027 H         1 <0>         0.0564
     32 H11         2.7353   -3.3538    1.0424 H         1 <0>         0.3894
     33 H12         4.1517   -4.6137    2.4047 H         1 <0>         0.3861
     34 H13         5.7239   -5.8284    3.7762 H         1 <0>         0.0544
     35 H14         5.7532   -7.6049    3.6698 H         1 <0>         0.0786
     36 H15         6.0693   -7.4528    1.2151 H         1 <0>         0.0516
     37 H16         6.0400   -5.6763    1.3215 H         1 <0>         0.0500
@<TRIPOS>BOND
     1    1    2 1
     2    1   24 1
     3    1   25 1
     4    1   26 1
     5    2    6 1
     6    2    3 2
     7    3    4 1
     8    3   27 1
     9    4    5 2
    10    4   28 1
    11    5    6 1
    12    5    7 1
    13    7    8 1
    14    7    9 1
    15    7   10 1
    16    9   29 1
    17    9   30 1
    18    9   31 1
    19   10   11 am
    20   10   32 1
    21   11   12 2
    22   11   13 am
    23   13   14 1
    24   13   33 1
    25   14   15 1
    26   14   16 1
    27   14   21 1
    28   16   17 1
    29   16   34 1
    30   16   35 1
    31   17   18 1
    32   17   36 1
    33   17   37 1
    34   18   19 2
    35   18   20 1
    36   21   22 2
    37   21   23 1
@<TRIPOS>MOLECULE
ZINC60856732
   33    34     0     0     0
SMALL
USER_CHARGES

@<TRIPOS>ATOM
      1 C1         -0.0178    1.4608    0.0101 C.3       1 <0>         0.0981
      2 N1          0.0021   -0.0041    0.0020 N.am      1 <0>        -0.7594
      3 C2          0.5851   -0.6645   -1.0180 C.2       1 <0>         0.5555
      4 O1          1.0946   -0.0445   -1.9316 O.2       1 <0>        -0.4900
      5 C3          0.6051   -2.1387   -1.0261 C.ar      1 <0>        -0.2268
      6 C4          0.0158   -2.8555    0.0187 C.ar      1 <0>        -0.0401
      7 C5          0.0379   -4.2328    0.0052 C.ar      1 <0>        -0.2528
      8 C6          0.6425   -4.9135   -1.0399 C.ar      1 <0>        -0.0450
      9 C7          1.2290   -4.2203   -2.0785 C.ar      1 <0>        -0.2680
     10 C8          1.2110   -2.8308   -2.0860 C.ar      1 <0>         0.3296
     11 N2          1.7952   -2.1308   -3.1335 N.2       1 <0>        -1.0296
     12 S1          2.5090   -2.9519   -4.3819 S.o2      1 <0>         2.6338
     13 O2          3.6378   -3.6202   -3.8358 O.2       1 <0>        -1.0484
     14 O3          1.4692   -3.6429   -5.0606 O.2       1 <0>        -1.0375
     15 C9          3.1324   -1.7485   -5.5080 C.2       1 <0>        -0.6925
     16 C10         2.4383   -1.1933   -6.5853 C.2       1 <0>        -0.0784
     17 C11         3.2951   -0.2990   -7.1986 C.2       1 <0>        -0.0536
     18 N3          4.4825   -0.3191   -6.4994 N.pl3     1 <0>        -0.5190
     19 H1          5.2685    0.2109   -6.7048 H         1 <0>         0.4127
     20 C12         4.3689   -1.1931   -5.4788 C.2       1 <0>         0.0798
     21 C13         2.9969    0.5177   -8.3734 C.2       1 <0>         0.5548
     22 O4          3.8467    1.2763   -8.8237 O.co2     1 <0>        -0.7067
     23 O5          1.8971    0.4436   -8.9076 O.co2     1 <0>        -0.6776
     24 H2          1.0048    1.8381    0.0023 H         1 <0>         0.0492
     25 H3         -0.5450    1.8219   -0.8730 H         1 <0>         0.0506
     26 H4         -0.5280    1.8123    0.9069 H         1 <0>         0.0586
     27 H5         -0.4044   -0.4986    0.7308 H         1 <0>         0.3882
     28 H6         -0.4560   -2.3304    0.8359 H         1 <0>         0.1014
     29 H7         -0.4180   -4.7852    0.8136 H         1 <0>         0.1000
     30 H8          0.6549   -5.9934   -1.0410 H         1 <0>         0.1008
     31 H9          1.6984   -4.7581   -2.8890 H         1 <0>         0.1026
     32 H10         1.4250   -1.4197   -6.8824 H         1 <0>         0.1426
     33 H11         5.1398   -1.4169   -4.7563 H         1 <0>         0.1671
@<TRIPOS>BOND
     1    1    2 1
     2    1   24 1
     3    1   25 1
     4    1   26 1
     5    2    3 am
     6    2   27 1
     7    3    4 2
     8    3    5 1
     9    5   10 ar
    10    5    6 ar
    11    6    7 ar
    12    6   28 1
    13    7    8 ar
    14    7   29 1
    15    8    9 ar
    16    8   30 1
    17    9   10 ar
    18    9   31 1
    19   10   11 1
    20   11   12 1
    21   12   13 2
    22   12   14 2
    23   12   15 1
    24   15   20 2
    25   15   16 1
    26   16   17 2
    27   16   32 1
    28   17   18 1
    29   17   21 1
    30   18   19 1
    31   18   20 1
    32   20   33 1
    33   21   22 2
    34   21   23 1
@<TRIPOS>MOLECULE
ZINC01669165
   20    20     0     0     0
SMALL
USER_CHARGES
cyclohex-2-ene-1,5-dicarboxylic acid
@<TRIPOS>ATOM
      1 C1         -0.6147    3.1200   -1.2878 C.3       1 <0>        -0.0572
      2 C2         -0.9520    3.7249    0.0435 C.2       1 <0>        -0.1866
      3 C3         -1.0031    3.0575    1.1514 C.2       1 <0>        -0.1066
      4 C4         -0.7374    1.5835    1.2605 C.3       1 <0>        -0.1081
      5 H1         -1.6851    1.0550    1.3636 H         1 <0>         0.0734
      6 C5         -0.0127    1.0858    0.0080 C.3       1 <0>        -0.0672
      7 C6         -0.7630    1.5981   -1.2279 C.3       1 <0>        -0.1294
      8 H2         -1.8181    1.3355   -1.1510 H         1 <0>         0.0621
      9 C7         -0.1760    0.9784   -2.4699 C.2       1 <0>         0.4687
     10 O1          0.7482    0.2053   -2.3803 O.co2     1 <0>        -0.6378
     11 C8          0.1165    1.3131    2.4724 C.2       1 <0>         0.4736
     12 O2          1.1924    0.7780    2.3461 O.co2     1 <0>        -0.6340
     13 H3          0.4127    3.3729   -1.5497 H         1 <0>         0.0581
     14 H4         -1.2876    3.5190   -2.0469 H         1 <0>         0.0626
     15 H5         -1.1657    4.7830    0.0794 H         1 <0>         0.0892
     16 H6         -1.2492    3.5947    2.0553 H         1 <0>         0.0969
     17 H7          0.0021   -0.0041    0.0020 H         1 <0>         0.0566
     18 H8          1.0088    1.4661    0.0003 H         1 <0>         0.0609
     19 O3         -0.6799    1.2852   -3.6755 O.co2     1 <0>        -0.7886
     20 O4         -0.3182    1.6668    3.6921 O.co2     1 <0>        -0.7867
@<TRIPOS>BOND
     1    1    7 1
     2    1    2 1
     3    1   13 1
     4    1   14 1
     5    2    3 2
     6    2   15 1
     7    3    4 1
     8    3   16 1
     9    4    5 1
    10    4    6 1
    11    4   11 1
    12    6    7 1
    13    6   17 1
    14    6   18 1
    15    7    8 1
    16    7    9 1
    17    9   10 2
    18    9   19 1
    19   11   12 2
    20   11   20 1
@<TRIPOS>MOLECULE
ZINC01620243
   12    12     0     0     0
SMALL
USER_CHARGES
2-thioxo-1,3-dithiole-4,5-dicarboxylic acid
@<TRIPOS>ATOM
      1 C1          2.3904    3.7551    0.0977 C.2       1 <0>        -0.1192
      2 C2          1.2389    3.0627    0.0047 C.2       1 <0>        -0.1712
      3 S1         -0.1918    4.0833   -0.1117 S.3       1 <0>         0.1586
      4 C3          0.4131    5.7536   -0.0517 C.2       1 <0>        -0.0007
      5 S2         -0.4647    7.2220   -0.1156 S.2       1 <0>        -0.4148
      6 S3          2.1673    5.5022    0.0857 S.3       1 <0>         0.1012
      7 C4          1.1820    1.5911   -0.0050 C.2       1 <0>         0.5249
      8 O1          2.2100    0.9435   -0.0257 O.co2     1 <0>        -0.5613
      9 C5          3.7114    3.1121    0.2001 C.2       1 <0>         0.5574
     10 O2          4.3780    2.9307   -0.7996 O.co2     1 <0>        -0.6038
     11 O3         -0.0105    0.9626    0.0090 O.co2     1 <0>        -0.7504
     12 O4          4.1810    2.7247    1.4029 O.co2     1 <0>        -0.7207
@<TRIPOS>BOND
     1    1    6 1
     2    1    2 2
     3    1    9 1
     4    2    3 1
     5    2    7 1
     6    3    4 1
     7    4    5 2
     8    4    6 1
     9    7    8 2
    10    7   11 1
    11    9   10 2
    12    9   12 1
@<TRIPOS>MOLECULE
ZINC15440423
   16    16     0     0     0
SMALL
USER_CHARGES
(2R)-2-[(5-sulfanyl-1,3,4-thiadiazol-2-yl)sulfanyl]propanoic acid
@<TRIPOS>ATOM
      1 C1         -1.8088   -0.9205   -1.4227 C.3       1 <0>        -0.1302
      2 C2         -1.2926   -0.7753    0.0102 C.3       1 <0>        -0.1324
      3 H1         -2.0026   -0.0922    0.4994 H         1 <0>         0.1040
      4 C3          0.0021   -0.0041    0.0020 C.2       1 <0>         0.4893
      5 O1          1.0565   -0.5939   -0.0112 O.co2     1 <0>        -0.6229
      6 O2         -0.0161    1.3381    0.0094 O.co2     1 <0>        -0.7553
      7 S1         -1.0121   -2.4202    0.7216 S.3       1 <0>         0.0651
      8 C4         -2.6222   -3.1318    0.7981 C.2       1 <0>         0.0402
      9 N1         -3.7820   -2.6161    0.4384 N.2       1 <0>        -0.3093
     10 N2         -4.9335   -3.3551    0.5819 N.2       1 <0>        -0.3687
     11 C5         -4.8737   -4.5718    1.0881 C.2       1 <0>         0.2992
     12 S2         -3.1215   -4.7412    1.3907 S.3       1 <0>        -0.1385
     13 S3         -6.1747   -5.7221    1.3865 S.3       1 <0>        -0.7212
     14 H2         -2.7538   -1.4834   -1.4167 H         1 <0>         0.0659
     15 H3         -1.0648   -1.4595   -2.0276 H         1 <0>         0.0541
     16 H4         -1.9789    0.0770   -1.8540 H         1 <0>         0.0609
@<TRIPOS>BOND
     1    1    2 1
     2    1   14 1
     3    1   15 1
     4    1   16 1
     5    2    3 1
     6    2    4 1
     7    2    7 1
     8    4    5 2
     9    4    6 1
    10    7    8 1
    11    8   12 1
    12    8    9 2
    13    9   10 1
    14   10   11 2
    15   11   12 1
    16   11   13 1
@<TRIPOS>MOLECULE
ZINC39293591
   23    24     0     0     0
SMALL
USER_CHARGES

@<TRIPOS>ATOM
      1 C1         -0.0168    1.3905    0.0097 C.2       1 <0>        -0.1064
      2 C2          1.1445    2.0839    0.0023 C.2       1 <0>        -0.2144
      3 S1          2.3564    0.7713   -0.0163 S.3       1 <0>        -0.0370
      4 C3          1.2274   -0.5954   -0.0137 C.2       1 <0>        -0.1244
      5 C4          0.0021   -0.0041    0.0020 C.2       1 <0>        -0.0715
      6 C5         -1.2636   -0.8563    0.0115 C.3       1 <0>        -0.1062
      7 H1         -1.9885   -0.4262    0.7026 H         1 <0>         0.0636
      8 C6         -0.9017   -2.2715    0.4637 C.3       1 <0>        -0.0657
      9 C7          0.2474   -2.8167   -0.3891 C.3       1 <0>        -0.1423
     10 H2          0.0210   -2.6690   -1.4451 H         1 <0>         0.0708
     11 C8          1.5331   -2.0579   -0.0266 C.3       1 <0>        -0.0135
     12 C9          0.4291   -4.2869   -0.1121 C.2       1 <0>         0.5061
     13 O1          0.6735   -5.0541   -1.0276 O.co2     1 <0>        -0.7068
     14 O2          0.3317   -4.7090    1.0276 O.co2     1 <0>        -0.7055
     15 C10        -1.8526   -0.9013   -1.3749 C.2       1 <0>         0.5095
     16 O3         -1.3081   -0.3048   -2.2882 O.co2     1 <0>        -0.6948
     17 O4         -2.8736   -1.5342   -1.5832 O.co2     1 <0>        -0.7024
     18 H3         -0.9596    1.9172    0.0260 H         1 <0>         0.1175
     19 H4          1.2990    3.1527    0.0061 H         1 <0>         0.1721
     20 H5         -0.5969   -2.2500    1.5100 H         1 <0>         0.0485
     21 H6         -1.7715   -2.9194    0.3554 H         1 <0>         0.0616
     22 H7          2.3038   -2.2656   -0.7688 H         1 <0>         0.0664
     23 H8          1.8782   -2.3697    0.9592 H         1 <0>         0.0747
@<TRIPOS>BOND
     1    1    5 1
     2    1    2 2
     3    1   18 1
     4    2    3 1
     5    2   19 1
     6    3    4 1
     7    4   11 1
     8    4    5 2
     9    5    6 1
    10    6    7 1
    11    6    8 1
    12    6   15 1
    13    8    9 1
    14    8   20 1
    15    8   21 1
    16    9   10 1
    17    9   11 1
    18    9   12 1
    19   11   22 1
    20   11   23 1
    21   12   13 2
    22   12   14 1
    23   15   16 2
    24   15   17 1
@<TRIPOS>MOLECULE
ZINC39274775
   20    20     0     0     0
SMALL
USER_CHARGES

@<TRIPOS>ATOM
      1 C1         -0.0183    1.4964    0.0103 C.3       1 <0>        -0.0733
      2 C2          1.4110    2.0430   -0.0004 C.3       1 <0>        -0.0981
      3 C3          2.2126    1.3265    1.0936 C.3       1 <0>        -0.1235
      4 H1          1.6796    1.3939    2.0420 H         1 <0>         0.0507
      5 C4          2.3695   -0.1426    0.6951 C.3       1 <0>        -0.1146
      6 H2          3.0569   -0.2169   -0.1476 H         1 <0>         0.0754
      7 C5          1.0394   -0.7170    0.3041 C.2       1 <0>        -0.0775
      8 C6          0.0021   -0.0041    0.0020 C.2       1 <0>        -0.2265
      9 C7          2.9230   -0.9202    1.8613 C.2       1 <0>         0.5065
     10 O1          2.6373   -2.0973    1.9997 O.co2     1 <0>        -0.7380
     11 O2          3.6564   -0.3721    2.6664 O.co2     1 <0>        -0.6608
     12 C8          3.5700    1.9670    1.2287 C.2       1 <0>         0.5131
     13 O3          3.6609    3.1463    1.5246 O.co2     1 <0>        -0.7405
     14 O4          4.5773    1.3059    1.0421 O.co2     1 <0>        -0.6720
     15 H3         -0.5320    1.8459    0.9058 H         1 <0>         0.0534
     16 H4         -0.5490    1.8554   -0.8715 H         1 <0>         0.0461
     17 H5          1.8679    1.8550   -0.9720 H         1 <0>         0.0454
     18 H6          1.3950    3.1144    0.1992 H         1 <0>         0.0568
     19 H7          0.9415   -1.7921    0.2729 H         1 <0>         0.0963
     20 H8         -0.9053   -0.5213   -0.2727 H         1 <0>         0.0809
@<TRIPOS>BOND
     1    1    8 1
     2    1    2 1
     3    1   15 1
     4    1   16 1
     5    2    3 1
     6    2   17 1
     7    2   18 1
     8    3    4 1
     9    3    5 1
    10    3   12 1
    11    5    6 1
    12    5    7 1
    13    5    9 1
    14    7    8 2
    15    7   19 1
    16    8   20 1
    17    9   10 2
    18    9   11 1
    19   12   13 2
    20   12   14 1
@<TRIPOS>MOLECULE
ZINC03845123
   30    30     0     0     0
SMALL
USER_CHARGES
4,6-bis(acetylamino)benzene-1,3-dicarboxylic acid
@<TRIPOS>ATOM
      1 C1          2.5189    4.9127   -0.4194 C.3       1 <0>        -0.1635
      2 C2          1.0489    4.5896   -0.3435 C.2       1 <0>         0.4964
      3 O1          0.2293    5.4031   -0.7136 O.2       1 <0>        -0.5453
      4 N1          0.6451    3.3964    0.1358 N.am      1 <0>        -0.6350
      5 C3         -0.7055    3.0722    0.1437 C.ar      1 <0>         0.1861
      6 C4         -1.6572    4.0742    0.2490 C.ar      1 <0>        -0.1792
      7 C5         -3.0059    3.7550    0.2625 C.ar      1 <0>         0.1880
      8 C6         -3.4141    2.4109    0.1648 C.ar      1 <0>        -0.1904
      9 C7         -2.4606    1.4015    0.0540 C.ar      1 <0>         0.0070
     10 C8         -1.1062    1.7262    0.0402 C.ar      1 <0>        -0.1895
     11 C9         -0.0946    0.6629   -0.0763 C.2       1 <0>         0.5057
     12 O2          1.0788    0.9521   -0.2055 O.co2     1 <0>        -0.6513
     13 C10        -4.8469    2.0728    0.1803 C.2       1 <0>         0.5075
     14 O3         -5.6799    2.9576    0.1895 O.co2     1 <0>        -0.6517
     15 N2         -3.9559    4.7622    0.3731 N.am      1 <0>        -0.6388
     16 C11        -3.6412    5.9212    0.9848 C.2       1 <0>         0.4948
     17 O4         -2.5606    6.0506    1.5196 O.2       1 <0>        -0.5443
     18 C12        -4.6323    7.0563    1.0041 C.3       1 <0>        -0.1639
     19 H1          3.0965    4.0673   -0.0456 H         1 <0>         0.0773
     20 H2          2.7942    5.1113   -1.4552 H         1 <0>         0.0888
     21 H3          2.7292    5.7932    0.1876 H         1 <0>         0.0867
     22 H4          1.2977    2.7640    0.4752 H         1 <0>         0.4224
     23 H5         -1.3471    5.1059    0.3240 H         1 <0>         0.1684
     24 H6         -2.7708    0.3698   -0.0215 H         1 <0>         0.1452
     25 H7         -4.8459    4.6314    0.0102 H         1 <0>         0.4246
     26 H8         -5.5385    6.7564    0.4778 H         1 <0>         0.0766
     27 H9         -4.8776    7.3070    2.0361 H         1 <0>         0.0879
     28 H10        -4.1976    7.9265    0.5123 H         1 <0>         0.0880
     29 O5         -0.4704   -0.6310   -0.0452 O.co2     1 <0>        -0.7502
     30 O6         -5.2347    0.7820    0.1843 O.co2     1 <0>        -0.7484
@<TRIPOS>BOND
     1    1    2 1
     2    1   19 1
     3    1   20 1
     4    1   21 1
     5    2    3 2
     6    2    4 am
     7    4    5 1
     8    4   22 1
     9    5   10 ar
    10    5    6 ar
    11    6    7 ar
    12    6   23 1
    13    7    8 ar
    14    7   15 1
    15    8    9 ar
    16    8   13 1
    17    9   10 ar
    18    9   24 1
    19   10   11 1
    20   11   12 2
    21   11   29 1
    22   13   14 2
    23   13   30 1
    24   15   16 am
    25   15   25 1
    26   16   17 2
    27   16   18 1
    28   18   26 1
    29   18   27 1
    30   18   28 1
@<TRIPOS>MOLECULE
ZINC02582501
   20    20     0     0     0
SMALL
USER_CHARGES
5-hydrazinobenzene-1,3-dicarboxylic acid
@<TRIPOS>ATOM
      1 C1          0.0596    3.8110    0.0220 C.ar      1 <0>        -0.0729
      2 C2          0.1181    5.2034    0.0288 C.ar      1 <0>        -0.1026
      3 C3          1.3565    5.8486    0.0204 C.ar      1 <0>        -0.1504
      4 C4          2.5277    5.1050    0.0052 C.ar      1 <0>         0.1668
      5 C5          2.4731    3.7187    0.0042 C.ar      1 <0>        -0.1389
      6 C6          1.2381    3.0671    0.0067 C.ar      1 <0>        -0.1051
      7 C7          1.1807    1.5907   -0.0007 C.2       1 <0>         0.4967
      8 O1          2.2083    0.9430   -0.0140 O.co2     1 <0>        -0.6472
      9 N1          3.7654    5.7540   -0.0031 N.pl3     1 <0>        -0.6159
     10 N2          4.9196    5.0234   -0.0181 N.3       1 <0>        -0.5988
     11 C8         -1.1288    5.9961    0.0455 C.2       1 <0>         0.4973
     12 O2         -1.0769    7.2096    0.0515 O.co2     1 <0>        -0.6494
     13 H1         -0.8969    3.3095    0.0281 H         1 <0>         0.1358
     14 H2          1.4026    6.9276    0.0261 H         1 <0>         0.1155
     15 H3          3.3867    3.1429   -0.0028 H         1 <0>         0.1234
     16 H4          3.8049    6.7232    0.0017 H         1 <0>         0.3927
     17 H5          4.9362    4.3897   -0.8030 H         1 <0>         0.3268
     18 H6          5.7289    5.6260   -0.0226 H         1 <0>         0.3383
     19 O3         -0.0110    0.9628    0.0073 O.co2     1 <0>        -0.7567
     20 O4         -2.3230    5.3729    0.0540 O.co2     1 <0>        -0.7552
@<TRIPOS>BOND
     1    1    6 ar
     2    1    2 ar
     3    1   13 1
     4    2    3 ar
     5    2   11 1
     6    3    4 ar
     7    3   14 1
     8    4    5 ar
     9    4    9 1
    10    5    6 ar
    11    5   15 1
    12    6    7 1
    13    7    8 2
    14    7   19 1
    15    9   10 1
    16    9   16 1
    17   10   17 1
    18   10   18 1
    19   11   12 2
    20   11   20 1
@<TRIPOS>MOLECULE
ZINC37792780
   38    38     0     0     0
SMALL
USER_CHARGES

@<TRIPOS>ATOM
      1 C1         -0.4562    0.7472   -0.0636 C.3       1 <0>        -0.0955
      2 C2          0.7523    1.7036   -0.1224 C.3       1 <0>        -0.1731
      3 C3          1.2929    1.8768    1.2712 C.3       1 <0>        -0.0915
      4 C4          2.4440    0.9012    1.5824 C.3       1 <0>        -0.0884
      5 C5          2.1825   -0.5206    1.0496 C.3       1 <0>        -0.1189
      6 C6          0.7628   -0.9669    1.2720 C.3       1 <0>        -0.0764
      7 C7         -0.0551   -0.6503    0.0032 C.3       1 <0>        -0.1636
      8 C8          3.1247   -1.4958    1.7583 C.3       1 <0>        -0.1130
      9 C9          2.8801   -2.8920    1.2467 C.2       1 <0>         0.4814
     10 O1          2.0354   -3.0879    0.3988 O.2       1 <0>        -0.4578
     11 N1          3.6001   -3.9231    1.7314 N.am      1 <0>        -0.7505
     12 C10         3.3623   -5.2804    1.2341 C.3       1 <0>         0.1476
     13 C11         4.3046   -6.2556    1.9427 C.3       1 <0>        -0.1918
     14 C12         4.0600   -7.6518    1.4311 C.2       1 <0>         0.4956
     15 O2          3.2107   -7.8487    0.5788 O.co2     1 <0>        -0.6910
     16 O3          4.7113   -8.5846    1.8696 O.co2     1 <0>        -0.7126
     17 C13         2.4768   -0.5493   -0.4281 C.2       1 <0>         0.5097
     18 O4          3.0344    0.3971   -0.9571 O.co2     1 <0>        -0.7023
     19 O5          2.1573   -1.5190   -1.0946 O.co2     1 <0>        -0.6386
     20 H1         -1.0527    0.9857    0.8170 H         1 <0>         0.0288
     21 H2         -1.0682    0.8966   -0.9532 H         1 <0>         0.0360
     22 H3          1.5242    1.2794   -0.7644 H         1 <0>         0.1411
     23 H4          0.4358    2.6699   -0.5150 H         1 <0>         0.0322
     24 H5          1.6560    2.8983    1.3842 H         1 <0>         0.0377
     25 H6          0.4865    1.7102    1.9855 H         1 <0>         0.0384
     26 H7          3.3598    1.2828    1.1311 H         1 <0>         0.0658
     27 H8          2.5809    0.8522    2.6626 H         1 <0>         0.0311
     28 H9          0.7420   -2.0399    1.4628 H         1 <0>         0.0699
     29 H10         0.3401   -0.4327    2.1229 H         1 <0>         0.0260
     30 H11        -0.9484   -1.2748   -0.0060 H         1 <0>         0.0292
     31 H12         0.5478   -0.8868   -0.8736 H         1 <0>         0.1317
     32 H13         4.1582   -1.2118    1.5594 H         1 <0>         0.0737
     33 H14         2.9395   -1.4646    2.8320 H         1 <0>         0.0680
     34 H15         4.2758   -3.7664    2.4095 H         1 <0>         0.3828
     35 H16         2.3289   -5.5644    1.4329 H         1 <0>         0.0588
     36 H17         3.5476   -5.3116    0.1604 H         1 <0>         0.0617
     37 H18         5.3380   -5.9716    1.7439 H         1 <0>         0.0595
     38 H19         4.1193   -6.2244    3.0164 H         1 <0>         0.0583
@<TRIPOS>BOND
     1    1    7 1
     2    1    2 1
     3    1   20 1
     4    1   21 1
     5    2    3 1
     6    2   22 1
     7    2   23 1
     8    3    4 1
     9    3   24 1
    10    3   25 1
    11    4    5 1
    12    4   26 1
    13    4   27 1
    14    5    6 1
    15    5    8 1
    16    5   17 1
    17    6    7 1
    18    6   28 1
    19    6   29 1
    20    7   30 1
    21    7   31 1
    22    8    9 1
    23    8   32 1
    24    8   33 1
    25    9   10 2
    26    9   11 am
    27   11   12 1
    28   11   34 1
    29   12   13 1
    30   12   35 1
    31   12   36 1
    32   13   14 1
    33   13   37 1
    34   13   38 1
    35   14   15 2
    36   14   16 1
    37   17   18 2
    38   17   19 1
@<TRIPOS>MOLECULE
ZINC40558928
   28    28     0     0     0
SMALL
USER_CHARGES

@<TRIPOS>ATOM
      1 C1         -1.2264    1.1625    0.1825 C.3       1 <0>         0.1077
      2 N1         -0.5732   -0.1451    0.0835 N.am      1 <0>        -0.6445
      3 C2          0.0902   -0.7230    1.2549 C.3       1 <0>         0.0824
      4 C3         -0.5826   -0.8163   -1.0851 C.2       1 <0>         0.6951
      5 O1         -1.1332   -0.3366   -2.0573 O.2       1 <0>        -0.5587
      6 N2          0.0183   -2.0192   -1.1762 N.am      1 <0>        -0.6753
      7 C4         -0.0732   -2.7596   -2.3611 C.ar      1 <0>         0.0976
      8 C5         -0.0818   -2.1076   -3.5851 C.ar      1 <0>        -0.0789
      9 C6         -0.1730   -2.8429   -4.7700 C.ar      1 <0>        -0.1477
     10 C7         -0.2554   -4.2339   -4.7205 C.ar      1 <0>        -0.0525
     11 C8         -0.2465   -4.8857   -3.4879 C.ar      1 <0>        -0.1468
     12 C9         -0.1493   -4.1434   -2.3078 C.ar      1 <0>        -0.1078
     13 C10        -0.3339   -6.3577   -3.4298 C.2       1 <0>         0.5288
     14 O2         -0.4143   -7.0067   -4.4632 O.co2     1 <0>        -0.6885
     15 O3         -0.3260   -6.9285   -2.3484 O.co2     1 <0>        -0.7046
     16 C11        -0.1826   -2.1481   -6.0719 C.2       1 <0>         0.5274
     17 O4         -0.1107   -0.9281   -6.1144 O.co2     1 <0>        -0.6978
     18 O5         -0.2625   -2.7923   -7.1083 O.co2     1 <0>        -0.6923
     19 H1         -0.5099    1.9461   -0.0638 H         1 <0>         0.0476
     20 H2         -2.0639    1.2039   -0.5139 H         1 <0>         0.0771
     21 H3         -1.5914    1.3103    1.1989 H         1 <0>         0.0620
     22 H4         -0.6237   -1.3257    1.8163 H         1 <0>         0.0532
     23 H5          0.9195   -1.3512    0.9297 H         1 <0>         0.0662
     24 H6          0.4685    0.0778    1.8902 H         1 <0>         0.0691
     25 H7          0.5143   -2.3721   -0.4209 H         1 <0>         0.3961
     26 H8         -0.0183   -1.0301   -3.6226 H         1 <0>         0.1364
     27 H9         -0.3264   -4.8050   -5.6344 H         1 <0>         0.1310
     28 H10        -0.1375   -4.6477   -1.3529 H         1 <0>         0.1176
@<TRIPOS>BOND
     1    1    2 1
     2    1   19 1
     3    1   20 1
     4    1   21 1
     5    2    3 1
     6    2    4 am
     7    3   22 1
     8    3   23 1
     9    3   24 1
    10    4    5 2
    11    4    6 am
    12    6    7 1
    13    6   25 1
    14    7   12 ar
    15    7    8 ar
    16    8    9 ar
    17    8   26 1
    18    9   10 ar
    19    9   16 1
    20   10   11 ar
    21   10   27 1
    22   11   12 ar
    23   11   13 1
    24   12   28 1
    25   13   14 2
    26   13   15 1
    27   16   17 2
    28   16   18 1
@<TRIPOS>MOLECULE
ZINC39886126
   31    32     0     0     0
SMALL
USER_CHARGES

@<TRIPOS>ATOM
      1 C1          0.1094    1.1694   -0.7354 C.ar      1 <0>        -0.0698
      2 C2          1.2920    1.8726   -0.7463 C.ar      1 <0>        -0.1630
      3 C3          2.3808    1.4182   -0.0077 C.ar      1 <0>         0.1337
      4 C4          2.2779    0.2518    0.7449 C.ar      1 <0>        -0.1350
      5 C5          1.0985   -0.4567    0.7613 C.ar      1 <0>        -0.0666
      6 C6          0.0019   -0.0035    0.0198 C.ar      1 <0>        -0.1492
      7 C7         -1.2619   -0.7587    0.0346 C.2       1 <0>         0.5221
      8 O1         -2.2198   -0.3608   -0.6140 O.co2     1 <0>        -0.6936
      9 O2         -1.3541   -1.7841    0.6955 O.co2     1 <0>        -0.6899
     10 N1          3.5769    2.1326   -0.0220 N.am      1 <0>        -0.6672
     11 C8          4.7528    1.4798    0.0645 C.2       1 <0>         0.5292
     12 O3          4.7751    0.2672    0.0584 O.2       1 <0>        -0.4990
     13 C9          6.0400    2.2565    0.1689 C.3       1 <0>        -0.1308
     14 S1          7.4361    1.1026    0.2692 S.3       1 <0>        -0.1501
     15 C10         8.8895    2.1816    0.3885 C.3       1 <0>        -0.1691
     16 H1          8.9081    2.8941   -0.4362 H         1 <0>         0.1022
     17 C11        10.1883    1.3476    0.4198 C.3       1 <0>        -0.1497
     18 C12        10.7884    1.6957    1.7652 C.2       1 <0>         0.4760
     19 O4         11.9410    1.2068    2.2472 O.3       1 <0>        -0.6482
     20 N2         10.0173    2.5409    2.3819 N.2       1 <0>        -0.6941
     21 C13         8.9147    2.9022    1.7207 C.2       1 <0>         0.5251
     22 O5          8.0705    3.6784    2.1193 O.2       1 <0>        -0.5407
     23 H2         -0.7363    1.5248   -1.3055 H         1 <0>         0.1281
     24 H3          1.3757    2.7780   -1.3290 H         1 <0>         0.1162
     25 H4          3.1250   -0.0977    1.3164 H         1 <0>         0.1282
     26 H5          1.0196   -1.3618    1.3452 H         1 <0>         0.1287
     27 H6          3.5633    3.0998   -0.0943 H         1 <0>         0.4074
     28 H7          6.1546    2.8898   -0.7107 H         1 <0>         0.1063
     29 H8          6.0175    2.8783    1.0639 H         1 <0>         0.1258
     30 H9          9.9635    0.2826    0.3625 H         1 <0>         0.0938
     31 H10        10.8565    1.6452   -0.3883 H         1 <0>         0.0935
@<TRIPOS>BOND
     1    1    6 ar
     2    1    2 ar
     3    1   23 1
     4    2    3 ar
     5    2   24 1
     6    3    4 ar
     7    3   10 1
     8    4    5 ar
     9    4   25 1
    10    5    6 ar
    11    5   26 1
    12    6    7 1
    13    7    8 2
    14    7    9 1
    15   10   11 am
    16   10   27 1
    17   11   12 2
    18   11   13 1
    19   13   14 1
    20   13   28 1
    21   13   29 1
    22   14   15 1
    23   15   16 1
    24   15   21 1
    25   15   17 1
    26   17   18 1
    27   17   30 1
    28   17   31 1
    29   18   19 1
    30   18   20 2
    31   20   21 1
    32   21   22 2
@<TRIPOS>MOLECULE
ZINC04357070
   40    41     0     0     0
SMALL
USER_CHARGES
2-[5-[(4-isopropylphenyl)methylene]-4-oxo-2-thioxo-thiazolidin-3-yl]butanedioic acid
@<TRIPOS>ATOM
      1 C1          0.1944   -2.6653    1.2589 C.3       1 <0>        -0.1438
      2 C2          1.1984   -2.1873    0.2080 C.3       1 <0>        -0.0574
      3 C3          0.8079   -2.7460   -1.1617 C.3       1 <0>        -0.1434
      4 C4          1.1927   -0.6812    0.1564 C.ar      1 <0>        -0.0728
      5 C5          2.3543    0.0212    0.4274 C.ar      1 <0>        -0.1108
      6 C6          2.3578    1.3991    0.3815 C.ar      1 <0>        -0.0935
      7 C7          1.1826    2.0875    0.0602 C.ar      1 <0>        -0.0674
      8 C8          0.0126    1.3699   -0.2124 C.ar      1 <0>        -0.0892
      9 C9          0.0261   -0.0078   -0.1621 C.ar      1 <0>        -0.1199
     10 C10         1.1772    3.5566    0.0094 C.2       1 <0>         0.0169
     11 C11         2.3431    4.2427    0.1044 C.2       1 <0>        -0.1769
     12 C12         2.5733    5.6983    0.2241 C.2       1 <0>         0.5519
     13 O1          1.6510    6.4916    0.2516 O.2       1 <0>        -0.4468
     14 N1          3.8328    6.0934    0.3042 N.am      1 <0>        -0.4682
     15 C13         4.8520    5.2112    0.2665 C.2       1 <0>         0.2998
     16 S1          6.5329    5.5253    0.3485 S.2       1 <0>        -0.3292
     17 S2          4.0248    3.6365    0.1112 S.3       1 <0>         0.0040
     18 C14         4.1278    7.5229    0.4295 C.3       1 <0>         0.0903
     19 H1          3.1950    8.0865    0.4438 H         1 <0>         0.1119
     20 C15         4.8949    7.7732    1.7294 C.3       1 <0>        -0.1699
     21 C16         4.0118    7.4439    2.9052 C.2       1 <0>         0.4617
     22 O2          2.8845    7.0493    2.7223 O.co2     1 <0>        -0.6401
     23 C17         4.9655    7.9675   -0.7417 C.2       1 <0>         0.4774
     24 O3          5.2834    7.1719   -1.5937 O.co2     1 <0>        -0.6240
     25 H2          0.4726   -2.2673    2.2348 H         1 <0>         0.0574
     26 H3         -0.8032   -2.3146    0.9944 H         1 <0>         0.0564
     27 H4          0.1985   -3.7547    1.2962 H         1 <0>         0.0549
     28 H5          2.1959   -2.5380    0.4725 H         1 <0>         0.0780
     29 H6          1.5231   -2.4054   -1.9104 H         1 <0>         0.0572
     30 H7          0.8120   -3.8353   -1.1244 H         1 <0>         0.0548
     31 H8         -0.1897   -2.3952   -1.4262 H         1 <0>         0.0563
     32 H9          3.2604   -0.5117    0.6752 H         1 <0>         0.1263
     33 H10         3.2638    1.9458    0.5972 H         1 <0>         0.1374
     34 H11        -0.8984    1.8938   -0.4611 H         1 <0>         0.1294
     35 H12        -0.8761   -0.5631   -0.3723 H         1 <0>         0.1224
     36 H13         0.2447    4.0896   -0.1035 H         1 <0>         0.1565
     37 H14         5.7834    7.1423    1.7543 H         1 <0>         0.0972
     38 H15         5.1917    8.8208    1.7801 H         1 <0>         0.0922
     39 O4          4.4775    7.5888    4.1558 O.co2     1 <0>        -0.7821
     40 O5          5.3584    9.2473   -0.8384 O.co2     1 <0>        -0.7547
@<TRIPOS>BOND
     1    1    2 1
     2    1   25 1
     3    1   26 1
     4    1   27 1
     5    2    3 1
     6    2    4 1
     7    2   28 1
     8    3   29 1
     9    3   30 1
    10    3   31 1
    11    4    9 ar
    12    4    5 ar
    13    5    6 ar
    14    5   32 1
    15    6    7 ar
    16    6   33 1
    17    7    8 ar
    18    7   10 1
    19    8    9 ar
    20    8   34 1
    21    9   35 1
    22   10   11 2
    23   10   36 1
    24   11   17 1
    25   11   12 1
    26   12   13 2
    27   12   14 am
    28   14   15 1
    29   14   18 1
    30   15   16 2
    31   15   17 1
    32   18   19 1
    33   18   20 1
    34   18   23 1
    35   20   21 1
    36   20   37 1
    37   20   38 1
    38   21   22 2
    39   21   39 1
    40   23   24 2
    41   23   40 1
@<TRIPOS>MOLECULE
ZINC20528674
   15    15     0     0     0
SMALL
USER_CHARGES
2-[(3-hydroxy-4-oxo-1,2,5-thiadiazin-6-yl)sulfanyl]acetic acid
@<TRIPOS>ATOM
      1 C1          6.0594    3.7751   -0.7428 C.3       1 <0>        -0.1784
      2 C2          7.4260    4.4064   -0.6736 C.2       1 <0>         0.4882
      3 O1          7.9342    4.6309    0.3994 O.co2     1 <0>        -0.6203
      4 O2          8.0788    4.7192   -1.8039 O.co2     1 <0>        -0.7519
      5 S1          5.4474    3.4758    0.9342 S.3       1 <0>         0.0867
      6 C3          3.8823    2.7557    0.5647 C.2       1 <0>         0.1320
      7 N1          3.0374    2.3562    1.5120 N.2       1 <0>        -0.5908
      8 C4          1.8606    1.8210    1.2691 C.2       1 <0>         0.4613
      9 O3          1.2127    1.5168    2.2590 O.2       1 <0>        -0.4840
     10 C5          1.2216    1.5319   -0.0014 C.2       1 <0>         0.3375
     11 N2          1.7808    1.8013   -1.1606 N.2       1 <0>        -0.5338
     12 S2          3.3287    2.5155   -1.0569 S.3       1 <0>         0.0935
     13 O4         -0.0110    0.9628    0.0073 O.3       1 <0>        -0.6537
     14 H1          5.3696    4.4508   -1.2697 H         1 <0>         0.1068
     15 H2          6.1235    2.8205   -1.2856 H         1 <0>         0.1068
@<TRIPOS>BOND
     1    1    2 1
     2    1    5 1
     3    1   14 1
     4    1   15 1
     5    2    3 2
     6    2    4 1
     7    5    6 1
     8    6   12 1
     9    6    7 2
    10    7    8 1
    11    8    9 2
    12    8   10 1
    13   10   11 2
    14   10   13 1
    15   11   12 1
@<TRIPOS>MOLECULE
ZINC37024978
   30    30     0     0     0
SMALL
USER_CHARGES

@<TRIPOS>ATOM
      1 C1          0.1478    1.5326    0.0968 C.3       1 <0>        -0.1505
      2 C2          0.1214    0.0032    0.0639 C.3       1 <0>         0.0625
      3 O1          0.7761   -0.4592   -1.1191 O.3       1 <0>        -0.3545
      4 C3          0.8400   -1.7929   -1.3015 C.2       1 <0>         0.5254
      5 O2          0.3529   -2.5427   -0.4786 O.2       1 <0>        -0.5458
      6 C4          1.5004   -2.3421   -2.4992 C.ar      1 <0>        -0.2648
      7 C5          2.0665   -1.4806   -3.4444 C.ar      1 <0>         0.0031
      8 C6          2.6829   -1.9962   -4.5613 C.ar      1 <0>        -0.2633
      9 C7          2.7432   -3.3740   -4.7517 C.ar      1 <0>         0.3461
     10 C8          2.1806   -4.2352   -3.8125 C.ar      1 <0>        -0.1716
     11 C9          1.5675   -3.7258   -2.6900 C.ar      1 <0>         0.0250
     12 Br1         2.2649   -6.1058   -4.0763 Br        1 <0>        -0.0732
     13 N1          3.3662   -3.8915   -5.8820 N.2       1 <0>        -1.0759
     14 S1          3.8938   -2.8728   -7.0763 S.o2      1 <0>         2.5797
     15 O3          2.7251   -2.1955   -7.5176 O.2       1 <0>        -1.0220
     16 O4          4.9700   -2.1536   -6.4901 O.2       1 <0>        -1.0229
     17 C10         4.5125   -3.9678   -8.3834 C.3       1 <0>        -0.6576
     18 C11         5.0234   -3.1386   -9.5334 C.2       1 <0>         0.5190
     19 O5          4.9746   -1.9217   -9.4764 O.co2     1 <0>        -0.6857
     20 O6          5.4855   -3.6846  -10.5207 O.co2     1 <0>        -0.6914
     21 H1          1.1815    1.8782    0.0950 H         1 <0>         0.0651
     22 H2         -0.3677    1.9238   -0.7803 H         1 <0>         0.0653
     23 H3         -0.3517    1.8853    0.9992 H         1 <0>         0.0709
     24 H4          0.6368   -0.3881    0.9410 H         1 <0>         0.0599
     25 H5         -0.9124   -0.3425    0.0657 H         1 <0>         0.0599
     26 H6          2.0196   -0.4116   -3.2980 H         1 <0>         0.1193
     27 H7          3.1201   -1.3312   -5.2913 H         1 <0>         0.1197
     28 H8          1.1353   -4.3939   -1.9597 H         1 <0>         0.1240
     29 H9          5.3228   -4.5816   -7.9899 H         1 <0>         0.1172
     30 H10         3.7045   -4.6118   -8.7306 H         1 <0>         0.1173
@<TRIPOS>BOND
     1    1    2 1
     2    1   21 1
     3    1   22 1
     4    1   23 1
     5    2    3 1
     6    2   24 1
     7    2   25 1
     8    3    4 1
     9    4    5 2
    10    4    6 1
    11    6   11 ar
    12    6    7 ar
    13    7    8 ar
    14    7   26 1
    15    8    9 ar
    16    8   27 1
    17    9   10 ar
    18    9   13 1
    19   10   11 ar
    20   10   12 1
    21   11   28 1
    22   13   14 1
    23   14   15 2
    24   14   16 2
    25   14   17 1
    26   17   18 1
    27   17   29 1
    28   17   30 1
    29   18   19 2
    30   18   20 1
@<TRIPOS>MOLECULE
ZINC42791485
   30    31     0     0     0
SMALL
USER_CHARGES

@<TRIPOS>ATOM
      1 C1         -0.0167    1.3803    0.0096 C.ar      1 <0>        -0.0035
      2 C2          1.1664    2.0955    0.0022 C.ar      1 <0>        -0.2049
      3 C3          2.3789    1.4312   -0.0134 C.ar      1 <0>         0.1593
      4 C4          2.4044    0.0312   -0.0211 C.ar      1 <0>        -0.2018
      5 C5          1.2022   -0.6819   -0.0130 C.ar      1 <0>         0.0411
      6 C6          0.0021   -0.0041    0.0020 C.ar      1 <0>        -0.6504
      7 S1         -1.5136   -0.9026    0.0116 S.o2      1 <0>         2.6198
      8 O1         -1.2227   -2.1839    0.5528 O.2       1 <0>        -1.0285
      9 O2         -2.4927   -0.0414    0.5764 O.2       1 <0>        -1.0387
     10 N1         -1.9498   -1.1438   -1.5676 N.2       1 <0>        -1.0881
     11 C7         -3.1272   -1.8384   -1.8704 C.ar      1 <0>         0.2373
     12 C8         -3.4878   -2.0443   -3.1895 C.ar      1 <0>        -0.0932
     13 C9         -4.6648   -2.7387   -3.4884 C.ar      1 <0>        -0.1431
     14 C10        -5.4701   -3.2207   -2.4489 C.ar      1 <0>         0.0453
     15 C11        -5.0994   -3.0089   -1.1347 C.ar      1 <0>        -0.1542
     16 C12        -3.9313   -2.3264   -0.8424 C.ar      1 <0>        -0.0525
     17 F1         -3.5720   -2.1281    0.4448 F         1 <0>        -0.1436
     18 F2         -6.6083   -3.8917   -2.7308 F         1 <0>        -0.1421
     19 C13        -5.0557   -2.9614   -4.8900 C.2       1 <0>         0.5293
     20 O3         -4.3507   -2.5389   -5.7962 O.co2     1 <0>        -0.6935
     21 O4         -6.0855   -3.5690   -5.1487 O.co2     1 <0>        -0.6935
     22 C14         3.6913   -0.6862   -0.0382 C.2       1 <0>         0.5279
     23 O5          3.7096   -1.9092   -0.0449 O.co2     1 <0>        -0.6810
     24 O6          4.7412   -0.0588   -0.0456 O.co2     1 <0>        -0.6878
     25 F3          3.5349    2.1303   -0.0216 F         1 <0>        -0.1259
     26 H1         -0.9609    1.9045    0.0260 H         1 <0>         0.1371
     27 H2          1.1435    3.1752    0.0082 H         1 <0>         0.1275
     28 H3          1.2137   -1.7619   -0.0192 H         1 <0>         0.1485
     29 H4         -2.8628   -1.6698   -3.9867 H         1 <0>         0.1365
     30 H5         -5.7209   -3.3804   -0.3334 H         1 <0>         0.1166
@<TRIPOS>BOND
     1    1    6 ar
     2    1    2 ar
     3    1   26 1
     4    2    3 ar
     5    2   27 1
     6    3    4 ar
     7    3   25 1
     8    4    5 ar
     9    4   22 1
    10    5    6 ar
    11    5   28 1
    12    6    7 1
    13    7    8 2
    14    7    9 2
    15    7   10 1
    16   10   11 1
    17   11   16 ar
    18   11   12 ar
    19   12   13 ar
    20   12   29 1
    21   13   14 ar
    22   13   19 1
    23   14   15 ar
    24   14   18 1
    25   15   16 ar
    26   15   30 1
    27   16   17 1
    28   19   20 2
    29   19   21 1
    30   22   23 2
    31   22   24 1
@<TRIPOS>MOLECULE
ZINC57452134
   37    37     0     0     0
SMALL
USER_CHARGES

@<TRIPOS>ATOM
      1 C1         -0.2723    1.4523    0.1039 C.3       1 <0>        -0.1329
      2 C2         -0.1136   -0.0690    0.0672 C.3       1 <0>         0.0649
      3 C3          0.4244   -0.4885   -1.2988 C.3       1 <0>        -0.0969
      4 C4          0.8140   -1.9429   -1.2827 C.2       1 <0>         0.3067
      5 O1          0.6238   -2.7002   -2.3794 O.3       1 <0>        -0.7268
      6 C5          1.3580   -2.4945   -0.1639 C.2       1 <0>        -0.3861
      7 C6          1.7836   -3.9042   -0.1648 C.2       1 <0>         0.2157
      8 N1          2.3010   -4.4252    0.9024 N.2       1 <0>        -0.3598
      9 O2          2.7102   -5.7808    0.9015 O.3       1 <0>        -0.3096
     10 C7          3.2625   -6.2220    2.1435 C.3       1 <0>         0.1159
     11 C8          3.6616   -7.6707    2.0294 C.2       1 <0>        -0.1270
     12 C9          4.8196   -8.0696    2.4942 C.2       1 <0>        -0.2076
     13 C10         1.5186   -1.6745    1.0448 C.2       1 <0>         0.3979
     14 O3          2.3380   -2.0822    2.0401 O.3       1 <0>        -0.7144
     15 C11         0.8349   -0.4979    1.1555 C.2       1 <0>        -0.5654
     16 C12         1.0165    0.3140    2.2865 C.2       1 <0>         0.6072
     17 O4          0.1862    0.3116    3.1777 O.2       1 <0>        -0.5802
     18 O5          2.1121    1.0978    2.3863 O.3       1 <0>        -0.3667
     19 C13         2.2323    1.8979    3.5642 C.3       1 <0>         0.0367
     20 C14        -1.4764   -0.7262    0.2949 C.3       1 <0>        -0.1252
     21 H1          0.7096    1.9216    0.0430 H         1 <0>         0.0464
     22 H2         -0.8820    1.7745   -0.7402 H         1 <0>         0.0328
     23 H3         -0.7576    1.7446    1.0351 H         1 <0>         0.0381
     24 H4         -0.3452   -0.3294   -2.0541 H         1 <0>         0.0467
     25 H5          1.2975    0.1163   -1.5439 H         1 <0>         0.0590
     26 H6          1.6644   -4.5037   -1.0552 H         1 <0>         0.0785
     27 H7          4.1395   -5.6214    2.3849 H         1 <0>         0.0482
     28 H8          2.5180   -6.1113    2.9319 H         1 <0>         0.0517
     29 H9          2.9930   -8.3800    1.5643 H         1 <0>         0.1075
     30 H10         5.4882   -7.3603    2.9592 H         1 <0>         0.0959
     31 H11         5.1056   -9.1078    2.4124 H         1 <0>         0.0941
     32 H12         3.1543    2.4774    3.5173 H         1 <0>         0.0700
     33 H13         1.3807    2.5749    3.6320 H         1 <0>         0.0348
     34 H14         2.2535    1.2517    4.4417 H         1 <0>         0.0398
     35 H15        -2.1664   -0.4126   -0.4885 H         1 <0>         0.0189
     36 H16        -1.3659   -1.8102    0.2692 H         1 <0>         0.0510
     37 H17        -1.8679   -0.4238    1.2662 H         1 <0>         0.0402
@<TRIPOS>BOND
     1    1    2 1
     2    1   21 1
     3    1   22 1
     4    1   23 1
     5    2   15 1
     6    2    3 1
     7    2   20 1
     8    3    4 1
     9    3   24 1
    10    3   25 1
    11    4    5 1
    12    4    6 2
    13    6    7 1
    14    6   13 1
    15    7    8 2
    16    7   26 1
    17    8    9 1
    18    9   10 1
    19   10   11 1
    20   10   27 1
    21   10   28 1
    22   11   12 2
    23   11   29 1
    24   12   30 1
    25   12   31 1
    26   13   14 1
    27   13   15 2
    28   15   16 1
    29   16   17 2
    30   16   18 1
    31   18   19 1
    32   19   32 1
    33   19   33 1
    34   19   34 1
    35   20   35 1
    36   20   36 1
    37   20   37 1
@<TRIPOS>MOLECULE
ZINC01804924
   31    32     0     0     0
SMALL
USER_CHARGES
2-[5-[(4-fluorophenyl)methylene]-4-oxo-2-thioxo-thiazolidin-3-yl]butanedioic acid
@<TRIPOS>ATOM
      1 C1          2.3590    1.4005    0.3825 C.ar      1 <0>        -0.0725
      2 C2          2.3580    0.0235    0.4290 C.ar      1 <0>        -0.1441
      3 C3          1.1952   -0.6819    0.1575 C.ar      1 <0>         0.1000
      4 C4          0.0261   -0.0078   -0.1624 C.ar      1 <0>        -0.1560
      5 C5          0.0128    1.3690   -0.2129 C.ar      1 <0>        -0.0639
      6 C6          1.1827    2.0874    0.0604 C.ar      1 <0>        -0.0709
      7 C7          1.1759    3.5558    0.0094 C.2       1 <0>         0.0129
      8 C8          2.3417    4.2432    0.1044 C.2       1 <0>        -0.1709
      9 C9          2.5703    5.6981    0.2241 C.2       1 <0>         0.5508
     10 O1          1.6470    6.4904    0.2518 O.2       1 <0>        -0.4434
     11 N1          3.8293    6.0950    0.3036 N.am      1 <0>        -0.4682
     12 C10         4.8496    5.2141    0.2662 C.2       1 <0>         0.2999
     13 S1          6.5302    5.5301    0.3480 S.2       1 <0>        -0.3213
     14 S2          4.0240    3.6385    0.1113 S.3       1 <0>         0.0005
     15 C11         4.1224    7.5249    0.4296 C.3       1 <0>         0.0903
     16 H1          3.1887    8.0872    0.4445 H         1 <0>         0.1126
     17 C12         4.9717    7.9781   -0.7596 C.3       1 <0>        -0.1702
     18 C13         4.1702    7.8457   -2.0288 C.2       1 <0>         0.4617
     19 O2          3.0360    7.4314   -1.9866 O.co2     1 <0>        -0.6402
     20 C14         4.8781    7.7719    1.7098 C.2       1 <0>         0.4774
     21 O3          5.1445    6.8483    2.4419 O.co2     1 <0>        -0.6243
     22 F1          1.2014   -2.0321    0.2043 F         1 <0>        -0.1417
     23 H2          3.2641    1.9487    0.5985 H         1 <0>         0.1466
     24 H3          3.2649   -0.5079    0.6770 H         1 <0>         0.1410
     25 H4         -0.8758   -0.5633   -0.3727 H         1 <0>         0.1374
     26 H5         -0.8981    1.8927   -0.4628 H         1 <0>         0.1418
     27 H6          0.2429    4.0879   -0.1036 H         1 <0>         0.1606
     28 H7          5.2642    9.0190   -0.6214 H         1 <0>         0.0926
     29 H8          5.8641    7.3558   -0.8268 H         1 <0>         0.0968
     30 O4          4.7163    8.1880   -3.2062 O.co2     1 <0>        -0.7815
     31 O5          5.2552    9.0179    2.0368 O.co2     1 <0>        -0.7538
@<TRIPOS>BOND
     1    1    6 ar
     2    1    2 ar
     3    1   23 1
     4    2    3 ar
     5    2   24 1
     6    3    4 ar
     7    3   22 1
     8    4    5 ar
     9    4   25 1
    10    5    6 ar
    11    5   26 1
    12    6    7 1
    13    7    8 2
    14    7   27 1
    15    8   14 1
    16    8    9 1
    17    9   10 2
    18    9   11 am
    19   11   12 1
    20   11   15 1
    21   12   13 2
    22   12   14 1
    23   15   16 1
    24   15   17 1
    25   15   20 1
    26   17   18 1
    27   17   28 1
    28   17   29 1
    29   18   19 2
    30   18   30 1
    31   20   21 2
    32   20   31 1
@<TRIPOS>MOLECULE
ZINC01037068
   19    19     0     0     0
SMALL
USER_CHARGES
(1R,2S)-1,2-dimethylcyclopropane-1,2-dicarboxylic acid
@<TRIPOS>ATOM
      1 C1         -1.2114   -0.6516   -0.6015 C.3       1 <0>        -0.0807
      2 C2          0.0083   -0.0053    0.0584 C.3       1 <0>        -0.1492
      3 C3          0.6593   -0.7520    1.2243 C.3       1 <0>        -0.1576
      4 C4          1.3623   -0.6914   -0.1333 C.3       1 <0>        -0.1435
      5 C5          1.3933   -1.9716   -0.9706 C.3       1 <0>        -0.0868
      6 C6          2.5791    0.1903   -0.2480 C.2       1 <0>         0.5032
      7 O1          3.4992    0.0534    0.5230 O.co2     1 <0>        -0.6598
      8 C7         -0.0065    1.5005    0.1180 C.2       1 <0>         0.5171
      9 O2          0.3873    2.0698    1.1083 O.co2     1 <0>        -0.6487
     10 H1         -1.0617   -0.6928   -1.6804 H         1 <0>         0.0502
     11 H2         -1.3415   -1.6620   -0.2139 H         1 <0>         0.0320
     12 H3         -2.1001   -0.0604   -0.3804 H         1 <0>         0.0466
     13 H4          1.0770   -0.1542    2.0345 H         1 <0>         0.0903
     14 H5          0.2187   -1.7038    1.5212 H         1 <0>         0.0692
     15 H6          1.0345   -1.7563   -1.9770 H         1 <0>         0.0509
     16 H7          2.4151   -2.3476   -1.0218 H         1 <0>         0.0465
     17 H8          0.7524   -2.7230   -0.5093 H         1 <0>         0.0398
     18 O3          2.6407    1.1276   -1.2069 O.co2     1 <0>        -0.7464
     19 O4         -0.4522    2.2093   -0.9311 O.co2     1 <0>        -0.7731
@<TRIPOS>BOND
     1    1    2 1
     2    1   10 1
     3    1   11 1
     4    1   12 1
     5    2    4 1
     6    2    3 1
     7    2    8 1
     8    3    4 1
     9    3   13 1
    10    3   14 1
    11    4    5 1
    12    4    6 1
    13    5   15 1
    14    5   16 1
    15    5   17 1
    16    6    7 2
    17    6   18 1
    18    8    9 2
    19    8   19 1
@<TRIPOS>MOLECULE
ZINC20023364
   20    21     0     0     0
SMALL
USER_CHARGES
5-(1,3,4-thiadiazol-2-ylsulfamoyl)thiophene-3-carboxylic acid
@<TRIPOS>ATOM
      1 C1          2.2644    0.9746   -0.0143 C.2       1 <0>         0.0107
      2 C2          1.3177    2.0620    0.0006 C.2       1 <0>        -0.1964
      3 C3         -0.0214    1.7273    0.0115 C.2       1 <0>        -0.1563
      4 S1          0.0021   -0.0041    0.0020 S.3       1 <0>         0.1909
      5 C4          1.7622   -0.2754   -0.0162 C.2       1 <0>        -0.7570
      6 S2          2.6345   -1.8063   -0.0328 S.o2      1 <0>         2.6676
      7 O1          1.7481   -2.7729   -0.5799 O.2       1 <0>        -1.0009
      8 O2          3.9120   -1.5397   -0.5950 O.2       1 <0>        -0.9784
      9 N1          2.8926   -2.2399    1.5445 N.2       1 <0>        -0.9861
     10 C5          1.8163   -2.5398    2.3662 C.2       1 <0>         0.4204
     11 N2          0.5163   -2.5447    2.1025 N.2       1 <0>        -0.4125
     12 N3         -0.3387   -2.8467    2.9791 N.2       1 <0>        -0.2298
     13 C6          0.0021   -3.1756    4.2086 C.2       1 <0>        -0.0649
     14 S3          1.7832   -3.0393    4.0855 S.3       1 <0>        -0.1578
     15 C7          1.7590    3.4645    0.0039 C.2       1 <0>         0.5104
     16 O3          2.9456    3.7284   -0.0065 O.co2     1 <0>        -0.6355
     17 O4          0.8478    4.4578    0.0184 O.co2     1 <0>        -0.7665
     18 H1          3.3293    1.1544   -0.0232 H         1 <0>         0.1449
     19 H2         -0.8771    2.3862    0.0194 H         1 <0>         0.1858
     20 H3         -0.6162   -3.4528    5.0495 H         1 <0>         0.2112
@<TRIPOS>BOND
     1    1    5 2
     2    1    2 1
     3    1   18 1
     4    2    3 2
     5    2   15 1
     6    3    4 1
     7    3   19 1
     8    4    5 1
     9    5    6 1
    10    6    7 2
    11    6    8 2
    12    6    9 1
    13    9   10 1
    14   10   14 1
    15   10   11 2
    16   11   12 1
    17   12   13 2
    18   13   14 1
    19   13   20 1
    20   15   16 2
    21   15   17 1
@<TRIPOS>MOLECULE
ZINC43463547
   24    24     0     0     0
SMALL
USER_CHARGES

@<TRIPOS>ATOM
      1 C1         -0.2571    1.4142    0.0991 C.3       1 <0>        -0.0129
      2 C2         -0.7470    2.0341   -1.1745 C.2       1 <0>        -0.5225
      3 C3         -0.7518    1.3819   -2.3437 C.2       1 <0>         0.3234
      4 O1         -1.2111    2.0210   -3.4363 O.3       1 <0>        -0.7201
      5 C4         -0.2672   -0.0290   -2.4885 C.3       1 <0>        -0.0377
      6 C5         -0.2419   -0.7336   -1.1659 C.2       1 <0>        -0.4520
      7 C6         -0.2376   -0.0814    0.0035 C.2       1 <0>         0.3332
      8 O2         -0.2137   -0.7998    1.1421 O.3       1 <0>        -0.6521
      9 C7         -0.2219   -2.1395   -1.1526 C.2       1 <0>         0.3402
     10 O3         -0.2011   -2.7367   -0.0949 O.2       1 <0>        -0.4717
     11 C8         -0.2261   -2.9054   -2.4504 C.3       1 <0>         0.4044
     12 F1         -0.2036   -4.2782   -2.1818 F         1 <0>        -0.1960
     13 F2         -1.3814   -2.5907   -3.1739 F         1 <0>        -0.1841
     14 F3          0.9028   -2.5584   -3.2004 F         1 <0>        -0.1878
     15 C9         -1.2223    3.3570   -1.1398 C.2       1 <0>         0.4428
     16 O4         -2.3948    3.5871   -1.3590 O.2       1 <0>        -0.4489
     17 C10        -0.2771    4.4893   -0.8307 C.3       1 <0>         0.3994
     18 F4         -0.6386    5.0798    0.3849 F         1 <0>        -0.1953
     19 F5          1.0285    3.9952   -0.7391 F         1 <0>        -0.1709
     20 F6         -0.3439    5.4442   -1.8510 F         1 <0>        -0.1879
     21 H1          0.7516    1.7720    0.3054 H         1 <0>         0.0490
     22 H2         -0.9151    1.7111    0.9158 H         1 <0>         0.0437
     23 H3         -0.9301   -0.5663   -3.1666 H         1 <0>         0.0564
     24 H4          0.7391   -0.0196   -2.9073 H         1 <0>         0.0476
@<TRIPOS>BOND
     1    1    7 1
     2    1   21 1
     3    1   22 1
     4    1    2 1
     5    2    3 2
     6    2   15 1
     7    3    5 1
     8    3    4 1
     9    5    6 1
    10    5   23 1
    11    5   24 1
    12    6    7 2
    13    6    9 1
    14    7    8 1
    15    9   10 2
    16    9   11 1
    17   11   12 1
    18   11   13 1
    19   11   14 1
    20   15   17 1
    21   15   16 2
    22   17   18 1
    23   17   19 1
    24   17   20 1
@<TRIPOS>MOLECULE
ZINC16900464
   32    33     0     0     0
SMALL
USER_CHARGES

@<TRIPOS>ATOM
      1 C1         -0.0162    1.3913    0.0115 C.ar      1 <0>        -0.0314
      2 C2          0.4251    0.7220    1.1524 C.ar      1 <0>        -0.1550
      3 C3          1.6438    0.0383    1.1315 C.ar      1 <0>        -0.0630
      4 C4          2.4140    0.0252   -0.0213 C.ar      1 <0>         0.0572
      5 C5          1.9789    0.6894   -1.1580 C.ar      1 <0>        -0.0598
      6 C6          0.7612    1.3752   -1.1459 C.ar      1 <0>        -0.1533
      7 C7          0.2989    2.0814   -2.3564 C.2       1 <0>         0.5311
      8 O1         -0.7667    2.6812   -2.3449 O.co2     1 <0>        -0.6916
      9 O2          0.9814    2.0667   -3.3710 O.co2     1 <0>        -0.6968
     10 N1          3.6369   -0.6615   -0.0376 N.am      1 <0>        -0.5092
     11 C8          4.8170   -0.0373   -0.1385 C.2       1 <0>         0.5278
     12 O3          4.9719    1.1619   -0.2252 O.2       1 <0>        -0.4774
     13 C9          5.9268   -1.0658   -0.1264 C.3       1 <0>        -0.1237
     14 C10         5.1755   -2.4068    0.0002 C.3       1 <0>        -0.1352
     15 H1          5.4584   -2.9197    0.9194 H         1 <0>         0.1280
     16 C11         3.7205   -1.9946    0.0521 C.2       1 <0>         0.5302
     17 O4          2.7794   -2.7518    0.1557 O.2       1 <0>        -0.4593
     18 S1          5.4999   -3.4589   -1.4415 S.3       1 <0>        -0.1435
     19 C12         4.6690   -5.0208   -1.0407 C.3       1 <0>        -0.1591
     20 C13         4.8631   -5.9976   -2.1718 C.2       1 <0>         0.5160
     21 O5          5.5026   -5.6704   -3.1569 O.co2     1 <0>        -0.6765
     22 O6          4.3805   -7.1151   -2.1017 O.co2     1 <0>        -0.6922
     23 C14        -0.3934    0.7361    2.3802 C.2       1 <0>         0.5320
     24 O7         -1.4594    1.3350    2.3976 O.co2     1 <0>        -0.6906
     25 O8         -0.0055    0.1488    3.3803 O.co2     1 <0>        -0.7005
     26 H2         -0.9596    1.9169    0.0229 H         1 <0>         0.1353
     27 H3          1.9863   -0.4803    2.0148 H         1 <0>         0.1193
     28 H4          2.5818    0.6768   -2.0539 H         1 <0>         0.1223
     29 H5          6.4932   -1.0298   -1.0570 H         1 <0>         0.1261
     30 H6          6.5834   -0.9116    0.7298 H         1 <0>         0.1231
     31 H7          5.0944   -5.4345   -0.1264 H         1 <0>         0.0766
     32 H8          3.6040   -4.8392   -0.8962 H         1 <0>         0.0929
@<TRIPOS>BOND
     1    1    6 ar
     2    1    2 ar
     3    1   26 1
     4    2    3 ar
     5    2   23 1
     6    3    4 ar
     7    3   27 1
     8    4    5 ar
     9    4   10 1
    10    5    6 ar
    11    5   28 1
    12    6    7 1
    13    7    8 2
    14    7    9 1
    15   10   16 am
    16   10   11 am
    17   11   12 2
    18   11   13 1
    19   13   14 1
    20   13   29 1
    21   13   30 1
    22   14   15 1
    23   14   16 1
    24   14   18 1
    25   16   17 2
    26   18   19 1
    27   19   20 1
    28   19   31 1
    29   19   32 1
    30   20   21 2
    31   20   22 1
    32   23   24 2
    33   23   25 1
@<TRIPOS>MOLECULE
ZINC65833341
   35    36     0     0     0
SMALL
USER_CHARGES

@<TRIPOS>ATOM
      1 C1         -0.0614    1.5555   -0.0908 C.3       1 <0>        -0.1717
      2 C2         -0.0370    0.0501   -0.0279 C.2       1 <0>         0.4951
      3 O1          0.0408   -0.5109    1.0447 O.2       1 <0>        -0.5341
      4 N1         -0.1016   -0.6730   -1.1634 N.am      1 <0>        -0.5361
      5 C3         -0.0788    0.0016   -2.4637 C.3       1 <0>         0.0679
      6 C4         -0.1906   -2.0703   -1.1003 C.ar      1 <0>         0.0116
      7 C5         -0.0665   -2.7193    0.1208 C.ar      1 <0>        -0.1116
      8 C6         -0.1546   -4.0957    0.1833 C.ar      1 <0>        -0.1709
      9 C7         -0.3675   -4.8311   -0.9756 C.ar      1 <0>         0.2738
     10 C8         -0.4916   -4.1817   -2.1970 C.ar      1 <0>        -0.2513
     11 C9         -0.4087   -2.8049   -2.2582 C.ar      1 <0>        -0.0914
     12 N2         -0.4563   -6.2258   -0.9126 N.2       1 <0>        -1.0859
     13 S1         -0.7101   -7.1025   -2.2944 S.o2      1 <0>         2.6454
     14 O2         -2.0112   -6.7656   -2.7559 O.2       1 <0>        -1.0274
     15 O3          0.4498   -6.9379   -3.0986 O.2       1 <0>        -1.0324
     16 C10        -0.7645   -8.8015   -1.8307 C.2       1 <0>        -0.7256
     17 C11        -1.8341   -9.5371   -1.4705 C.2       1 <0>         0.0187
     18 C12        -1.5650  -10.9175   -1.1424 C.2       1 <0>        -0.2110
     19 C13        -0.2525  -11.3331   -1.2319 C.2       1 <0>        -0.1946
     20 S2          0.5790   -9.9644   -1.7322 S.3       1 <0>         0.1920
     21 C14        -2.6357  -11.8336   -0.7333 C.2       1 <0>         0.5394
     22 O4         -3.7902  -11.4333   -0.6634 O.co2     1 <0>        -0.6889
     23 O5         -2.3742  -12.9982   -0.4618 O.co2     1 <0>        -0.6984
     24 H1          0.9602    1.9352   -0.1068 H         1 <0>         0.0888
     25 H2         -0.5812    1.8730   -0.9948 H         1 <0>         0.0795
     26 H3         -0.5810    1.9474    0.7836 H         1 <0>         0.0890
     27 H4          0.9434    0.0284   -2.8411 H         1 <0>         0.0594
     28 H5         -0.7112   -0.5415   -3.1659 H         1 <0>         0.0773
     29 H6         -0.4515    1.0197   -2.3514 H         1 <0>         0.0758
     30 H7          0.0994   -2.1475    1.0219 H         1 <0>         0.1664
     31 H8         -0.0577   -4.6006    1.1331 H         1 <0>         0.1150
     32 H9         -0.6571   -4.7534   -3.0982 H         1 <0>         0.1001
     33 H10        -0.5097   -2.2996   -3.2074 H         1 <0>         0.1033
     34 H11        -2.8297   -9.1207   -1.4294 H         1 <0>         0.1491
     35 H12         0.1477  -12.3156   -1.0297 H         1 <0>         0.1841
@<TRIPOS>BOND
     1    1    2 1
     2    1   24 1
     3    1   25 1
     4    1   26 1
     5    2    3 2
     6    2    4 am
     7    4    5 1
     8    4    6 1
     9    5   27 1
    10    5   28 1
    11    5   29 1
    12    6   11 ar
    13    6    7 ar
    14    7    8 ar
    15    7   30 1
    16    8    9 ar
    17    8   31 1
    18    9   10 ar
    19    9   12 1
    20   10   11 ar
    21   10   32 1
    22   11   33 1
    23   12   13 1
    24   13   14 2
    25   13   15 2
    26   13   16 1
    27   16   20 1
    28   16   17 2
    29   17   18 1
    30   17   34 1
    31   18   19 2
    32   18   21 1
    33   19   20 1
    34   19   35 1
    35   21   22 2
    36   21   23 1
@<TRIPOS>MOLECULE
ZINC19836428
   24    24     0     0     0
SMALL
USER_CHARGES
3-[(2,4,5-trifluoro-3-hydroxy-benzoyl)amino]propanoic acid
@<TRIPOS>ATOM
      1 C1         -1.2364    2.1564    0.0196 C.ar      1 <0>        -0.2150
      2 C2         -0.0179    1.4716    0.0101 C.ar      1 <0>        -0.1073
      3 C3          1.1816    2.1893    0.0025 C.ar      1 <0>         0.0286
      4 C4          1.1554    3.5756    0.0103 C.ar      1 <0>         0.2373
      5 C5         -0.0595    4.2474    0.0251 C.ar      1 <0>        -0.0707
      6 C6         -1.2516    3.5359    0.0331 C.ar      1 <0>         0.1006
      7 F1         -2.4301    4.1964    0.0475 F         1 <0>        -0.1480
      8 F2         -0.0817    5.5982    0.0321 F         1 <0>        -0.1441
      9 O1          2.3204    4.2776    0.0029 O.3       1 <0>        -0.6825
     10 F3          2.3630    1.5341   -0.0128 F         1 <0>        -0.1234
     11 C7          0.0021   -0.0041    0.0020 C.2       1 <0>         0.5576
     12 O2          1.0631   -0.5976   -0.0113 O.2       1 <0>        -0.5361
     13 N1         -1.1558   -0.6938    0.0094 N.am      1 <0>        -0.7358
     14 C8         -1.1360   -2.1586    0.0013 C.3       1 <0>         0.1407
     15 C9         -2.5713   -2.6882    0.0122 C.3       1 <0>        -0.1681
     16 C10        -2.5509   -4.1950    0.0039 C.2       1 <0>         0.4660
     17 O3         -1.4965   -4.7848   -0.0093 O.co2     1 <0>        -0.6361
     18 O4         -3.7041   -4.8819    0.0112 O.co2     1 <0>        -0.7787
     19 H1         -2.1656    1.6058    0.0206 H         1 <0>         0.1311
     20 H2         -2.1157   -0.1568    0.0215 H         1 <0>         0.4126
     21 H3         -0.6212   -2.5133   -0.9038 H         1 <0>         0.0653
     22 H4         -0.6039   -2.5231    0.8924 H         1 <0>         0.0653
     23 H5         -3.0861   -2.3335    0.9172 H         1 <0>         0.0703
     24 H6         -3.1034   -2.3238   -0.8789 H         1 <0>         0.0704
@<TRIPOS>BOND
     1    1    6 ar
     2    1    2 ar
     3    1   19 1
     4    2    3 ar
     5    2   11 1
     6    3    4 ar
     7    3   10 1
     8    4    5 ar
     9    4    9 1
    10    5    6 ar
    11    5    8 1
    12    6    7 1
    13   11   12 2
    14   11   13 am
    15   13   14 1
    16   13   20 1
    17   14   15 1
    18   14   21 1
    19   14   22 1
    20   15   16 1
    21   15   23 1
    22   15   24 1
    23   16   17 2
    24   16   18 1
@<TRIPOS>MOLECULE
ZINC37656937
   34    35     0     0     0
SMALL
USER_CHARGES

@<TRIPOS>ATOM
      1 C1         -0.0175    1.4420    0.0100 C.2       1 <0>        -0.0590
      2 C2          1.1845    2.0449    0.0017 C.2       1 <0>        -0.2817
      3 S1          2.3278    0.6817   -0.0165 S.3       1 <0>        -0.0456
      4 C3          1.2531   -0.6066   -0.0132 C.2       1 <0>         0.2884
      5 C4          0.0021   -0.0041    0.0020 C.2       1 <0>        -0.3754
      6 C5         -1.2326   -0.7916    0.0100 C.2       1 <0>         0.5848
      7 O1         -1.1789   -2.0077    0.0034 O.2       1 <0>        -0.5320
      8 N1         -2.4283   -0.1699    0.0247 N.am      1 <0>        -0.8796
      9 N2          1.5456   -1.9573   -0.0236 N.2       1 <0>        -0.9865
     10 S2          3.1225   -2.4629   -0.0413 S.o2      1 <0>         2.7127
     11 O2          3.6656   -2.0552   -1.2895 O.2       1 <0>        -1.0281
     12 O3          3.6891   -2.0694    1.2010 O.2       1 <0>        -1.0397
     13 N3          3.1056   -4.1187   -0.0506 N.pl3     1 <0>        -0.9875
     14 C6          3.1038   -4.8744    1.2094 C.3       1 <0>         0.1342
     15 C7          1.9263   -5.8542    1.1951 C.3       1 <0>        -0.1336
     16 C8          2.0081   -6.7256   -0.0603 C.3       1 <0>        -0.0857
     17 C9          1.9149   -5.8401   -1.3050 C.3       1 <0>        -0.1683
     18 H1          0.9782   -5.2830   -1.2858 H         1 <0>         0.0736
     19 C10         3.0862   -4.8601   -1.3190 C.3       1 <0>         0.1590
     20 C11         1.9623   -6.7020   -2.5402 C.2       1 <0>         0.5035
     21 O4          1.1101   -7.5550   -2.7214 O.co2     1 <0>        -0.7074
     22 O5          2.8528   -6.5465   -3.3583 O.co2     1 <0>        -0.7011
     23 H2         -0.9403    2.0029    0.0261 H         1 <0>         0.1167
     24 H3          1.4033    3.1025    0.0050 H         1 <0>         0.1609
     25 H4         -2.4711    0.7991    0.0300 H         1 <0>         0.3852
     26 H5         -3.2461   -0.6915    0.0301 H         1 <0>         0.3842
     27 H6          4.0382   -5.4275    1.3052 H         1 <0>         0.0546
     28 H7          2.9965   -4.1864    2.0480 H         1 <0>         0.0764
     29 H8          1.9692   -6.4876    2.0811 H         1 <0>         0.0573
     30 H9          0.9895   -5.2970    1.1908 H         1 <0>         0.0704
     31 H10         2.9560   -7.2637   -0.0676 H         1 <0>         0.0477
     32 H11         1.1851   -7.4402   -0.0606 H         1 <0>         0.0605
     33 H12         2.9672   -4.1626   -2.1481 H         1 <0>         0.0805
     34 H13         4.0190   -5.4120   -1.4340 H         1 <0>         0.0607
@<TRIPOS>BOND
     1    1    5 1
     2    1    2 2
     3    1   23 1
     4    2    3 1
     5    2   24 1
     6    3    4 1
     7    4    5 2
     8    4    9 1
     9    5    6 1
    10    6    7 2
    11    6    8 am
    12    8   25 1
    13    8   26 1
    14    9   10 1
    15   10   11 2
    16   10   12 2
    17   10   13 1
    18   13   19 1
    19   13   14 1
    20   14   15 1
    21   14   27 1
    22   14   28 1
    23   15   16 1
    24   15   29 1
    25   15   30 1
    26   16   17 1
    27   16   31 1
    28   16   32 1
    29   17   18 1
    30   17   19 1
    31   17   20 1
    32   19   33 1
    33   19   34 1
    34   20   21 2
    35   20   22 1
@<TRIPOS>MOLECULE
ZINC39126066
   17    16     0     0     0
SMALL
USER_CHARGES

@<TRIPOS>ATOM
      1 C1         -0.0178    1.4608    0.0101 C.3       1 <0>         0.3174
      2 N1          0.0021   -0.0041    0.0020 N.am      1 <0>        -0.7235
      3 C2         -0.0794   -0.6855    1.1620 C.2       1 <0>         0.4559
      4 O1         -0.1692   -0.0859    2.2127 O.2       1 <0>        -0.5562
      5 C3         -0.0591   -2.1822    1.1537 C.2       1 <0>         0.4967
      6 O2         -0.1329   -2.7992    2.2039 O.co2     1 <0>        -0.6551
      7 O3          0.0312   -2.7853    0.0969 O.co2     1 <0>        -0.6724
      8 N2          1.3566    1.9679   -0.0003 N.am      1 <0>        -0.7234
      9 C4          1.9425    2.3028   -1.1669 C.2       1 <0>         0.4559
     10 O4          1.3318    2.1844   -2.2084 O.2       1 <0>        -0.5563
     11 C5          3.3468    2.8209   -1.1776 C.2       1 <0>         0.4967
     12 O5          3.8773    3.1241   -2.2338 O.co2     1 <0>        -0.6550
     13 O6          3.9611    2.9400   -0.1300 O.co2     1 <0>        -0.6725
     14 H1         -0.5450    1.8219   -0.8730 H         1 <0>         0.0901
     15 H2         -0.5280    1.8123    0.9069 H         1 <0>         0.0901
     16 H3          0.0739   -0.4835   -0.8381 H         1 <0>         0.4058
     17 H4          1.8449    2.0626    0.8324 H         1 <0>         0.4058
@<TRIPOS>BOND
     1    1    2 1
     2    1    8 1
     3    1   14 1
     4    1   15 1
     5    2    3 am
     6    2   16 1
     7    3    4 2
     8    3    5 1
     9    5    6 2
    10    5    7 1
    11    8    9 am
    12    8   17 1
    13    9   10 2
    14    9   11 1
    15   11   12 2
    16   11   13 1
@<TRIPOS>MOLECULE
ZINC50930859
   39    40     0     0     0
SMALL
USER_CHARGES

@<TRIPOS>ATOM
      1 C1          1.5645   -0.9739   -1.9547 C.3       1 <0>        -0.1478
      2 C2          2.0362    0.2192   -1.1211 C.3       1 <0>         0.2750
      3 H1          1.1741    0.8112   -0.8137 H         1 <0>         0.0918
      4 C3          2.9636    1.0734   -1.9465 C.2       1 <0>         0.0472
      5 N1          2.6779    2.2433   -2.4994 N.2       1 <0>        -0.3796
      6 N2          3.7330    2.6494   -3.1192 N.2       1 <0>        -0.1989
      7 N3          4.6675    1.7756   -2.9736 N.2       1 <0>        -0.1967
      8 N4          4.2235    0.8020   -2.2543 N.2       1 <0>        -0.3795
      9 N5          2.7450   -0.2644    0.0663 N.am      1 <0>        -0.7296
     10 C4          2.0538   -0.5998    1.1737 C.2       1 <0>         0.7099
     11 O1          0.8530   -0.4144    1.2203 O.2       1 <0>        -0.6036
     12 N6          2.6936   -1.1407    2.2294 N.am      1 <0>        -0.6287
     13 C5          1.9403   -1.6181    3.3970 C.3       1 <0>         0.1327
     14 C6          2.3362   -3.0710    3.6788 C.3       1 <0>        -0.1281
     15 C7          3.8563   -3.1607    3.8319 C.3       1 <0>        -0.0881
     16 C8          4.5287   -2.7208    2.5294 C.3       1 <0>        -0.1300
     17 C9          4.1572   -1.2696    2.2320 C.3       1 <0>         0.1114
     18 C10         4.2524   -4.6044    4.1476 C.3       1 <0>        -0.0853
     19 C11         5.7558   -4.6721    4.4235 C.3       1 <0>        -0.1830
     20 C12         6.1459   -6.0941    4.7345 C.2       1 <0>         0.4883
     21 O2          5.2999   -6.9721    4.7355 O.co2     1 <0>        -0.7016
     22 O3          7.3075   -6.3666    4.9852 O.co2     1 <0>        -0.7128
     23 H2          0.8937   -1.5917   -1.3577 H         1 <0>         0.0567
     24 H3          1.0371   -0.6140   -2.8382 H         1 <0>         0.0596
     25 H4          2.4265   -1.5659   -2.2621 H         1 <0>         0.0572
     26 H5          3.7117   -0.3433    0.0555 H         1 <0>         0.4013
     27 H6          2.1779   -1.0001    4.2628 H         1 <0>         0.0582
     28 H7          0.8716   -1.5643    3.1893 H         1 <0>         0.0884
     29 H8          1.8574   -3.4066    4.5987 H         1 <0>         0.0712
     30 H9          2.0160   -3.7025    2.8501 H         1 <0>         0.0652
     31 H10         4.1784   -2.5099    4.6447 H         1 <0>         0.0647
     32 H11         5.6105   -2.8072    2.6312 H         1 <0>         0.0787
     33 H12         4.1879   -3.3557    1.7115 H         1 <0>         0.0664
     34 H13         4.5507   -0.9859    1.2559 H         1 <0>         0.0780
     35 H14         4.5796   -0.6225    3.0007 H         1 <0>         0.0647
     36 H15         3.7059   -4.9472    5.0263 H         1 <0>         0.0570
     37 H16         4.0099   -5.2420    3.2974 H         1 <0>         0.0579
     38 H17         6.3022   -4.3293    3.5448 H         1 <0>         0.0586
     39 H18         5.9982   -4.0346    5.2737 H         1 <0>         0.0531
@<TRIPOS>BOND
     1    1    2 1
     2    1   23 1
     3    1   24 1
     4    1   25 1
     5    2    3 1
     6    2    9 1
     7    2    4 1
     8    4    5 2
     9    4    8 1
    10    5    6 1
    11    6    7 2
    12    7    8 1
    13    9   10 am
    14    9   26 1
    15   10   11 2
    16   10   12 am
    17   12   17 1
    18   12   13 1
    19   13   14 1
    20   13   27 1
    21   13   28 1
    22   14   15 1
    23   14   29 1
    24   14   30 1
    25   15   16 1
    26   15   18 1
    27   15   31 1
    28   16   17 1
    29   16   32 1
    30   16   33 1
    31   17   34 1
    32   17   35 1
    33   18   19 1
    34   18   36 1
    35   18   37 1
    36   19   20 1
    37   19   38 1
    38   19   39 1
    39   20   21 2
    40   20   22 1
@<TRIPOS>MOLECULE
ZINC63528739
   33    35     0     0     0
SMALL
USER_CHARGES

@<TRIPOS>ATOM
      1 C1          0.1094    1.1694   -0.7354 C.ar      1 <0>        -0.0697
      2 C2          1.2920    1.8726   -0.7463 C.ar      1 <0>        -0.1624
      3 C3          2.3808    1.4182   -0.0077 C.ar      1 <0>         0.1331
      4 C4          2.2779    0.2518    0.7449 C.ar      1 <0>        -0.1351
      5 C5          1.0985   -0.4567    0.7613 C.ar      1 <0>        -0.0671
      6 C6          0.0019   -0.0035    0.0198 C.ar      1 <0>        -0.1489
      7 C7         -1.2619   -0.7587    0.0346 C.2       1 <0>         0.5219
      8 O1         -2.2198   -0.3608   -0.6140 O.co2     1 <0>        -0.6934
      9 O2         -1.3541   -1.7841    0.6955 O.co2     1 <0>        -0.6900
     10 N1          3.5769    2.1326   -0.0220 N.am      1 <0>        -0.6659
     11 C8          4.7528    1.4798    0.0645 C.2       1 <0>         0.5286
     12 O3          4.7751    0.2672    0.0584 O.2       1 <0>        -0.5011
     13 C9          6.0400    2.2565    0.1689 C.3       1 <0>        -0.1420
     14 S1          7.4361    1.1026    0.2692 S.3       1 <0>         0.0437
     15 C10         8.8478    2.1506    0.3850 C.2       1 <0>         0.3681
     16 N2          8.6295    3.4395    0.3818 N.2       1 <0>        -0.6205
     17 C11         9.7619    4.3620    0.4871 C.3       1 <0>         0.1711
     18 H1         10.1397    4.6437   -0.4958 H         1 <0>         0.1330
     19 C12        10.8086    3.5978    1.2989 C.2       1 <0>         0.1117
     20 N3         11.1456    4.3720    2.2607 N.2       1 <0>        -0.4865
     21 C13        10.3609    5.4669    2.3092 C.2       1 <0>         0.2365
     22 N4          9.4945    5.5369    1.3158 N.2       1 <0>        -0.4760
     23 C14        11.1103    2.1944    0.9555 C.2       1 <0>         0.5252
     24 N5         10.0536    1.5452    0.4742 N.2       1 <0>        -0.6476
     25 O4         12.3266    1.6295    1.1170 O.3       1 <0>        -0.6140
     26 H2         -0.7363    1.5248   -1.3055 H         1 <0>         0.1280
     27 H3          1.3757    2.7780   -1.3290 H         1 <0>         0.1165
     28 H4          3.1250   -0.0977    1.3164 H         1 <0>         0.1285
     29 H5          1.0196   -1.3618    1.3452 H         1 <0>         0.1287
     30 H6          3.5633    3.0998   -0.0943 H         1 <0>         0.4082
     31 H7          6.1546    2.8898   -0.7107 H         1 <0>         0.1192
     32 H8          6.0175    2.8783    1.0639 H         1 <0>         0.1183
     33 H9         10.4379    6.2200    3.0794 H         1 <0>         0.1998
@<TRIPOS>BOND
     1    1    6 ar
     2    1    2 ar
     3    1   26 1
     4    2    3 ar
     5    2   27 1
     6    3    4 ar
     7    3   10 1
     8    4    5 ar
     9    4   28 1
    10    5    6 ar
    11    5   29 1
    12    6    7 1
    13    7    8 2
    14    7    9 1
    15   10   11 am
    16   10   30 1
    17   11   12 2
    18   11   13 1
    19   13   14 1
    20   13   31 1
    21   13   32 1
    22   14   15 1
    23   15   24 1
    24   15   16 2
    25   16   17 1
    26   17   18 1
    27   17   22 1
    28   17   19 1
    29   19   20 2
    30   19   23 1
    31   20   21 1
    32   21   22 2
    33   21   33 1
    34   23   24 2
    35   23   25 1
@<TRIPOS>MOLECULE
ZINC01749673
   39    40     0     0     0
SMALL
USER_CHARGES
2-[5-[(3-ethoxy-4-hydroxy-phenyl)methylene]-4-oxo-2-thioxo-thiazolidin-3-yl]butanedioic acid
@<TRIPOS>ATOM
      1 C1         -3.6095    0.3593   -2.2072 C.3       1 <0>        -0.1490
      2 C2         -2.2227    0.6234   -1.6173 C.3       1 <0>         0.0506
      3 O1         -2.2977    1.7097   -0.6918 O.3       1 <0>        -0.3105
      4 C3         -1.1427    2.0752   -0.0739 C.ar      1 <0>         0.0839
      5 C4          0.0315    1.4041   -0.3528 C.ar      1 <0>        -0.1691
      6 C5          1.2199    1.7874    0.2808 C.ar      1 <0>        -0.0480
      7 C6          1.2094    2.8454    1.1979 C.ar      1 <0>        -0.0548
      8 C7          0.0320    3.5051    1.4739 C.ar      1 <0>        -0.1082
      9 C8         -1.1457    3.1239    0.8450 C.ar      1 <0>         0.0858
     10 O2         -2.3036    3.7786    1.1215 O.3       1 <0>        -0.4899
     11 C9          2.4732    1.0818   -0.0153 C.2       1 <0>         0.0234
     12 C10         3.6339    1.7771   -0.1251 C.2       1 <0>        -0.1798
     13 C11         3.8586    3.2363   -0.1475 C.2       1 <0>         0.5460
     14 O3          2.9369    4.0265   -0.0615 O.2       1 <0>        -0.4377
     15 N1          5.1124    3.6411   -0.2610 N.am      1 <0>        -0.4687
     16 C12         6.1300    2.7622   -0.3634 C.2       1 <0>         0.3199
     17 S1          7.8033    3.0869   -0.5236 S.2       1 <0>        -0.3184
     18 S2          5.3100    1.1777   -0.2903 S.3       1 <0>        -0.0149
     19 C13         5.4018    5.0771   -0.2827 C.3       1 <0>         0.0924
     20 H1          4.4711    5.6368   -0.1896 H         1 <0>         0.1128
     21 C14         6.3271    5.4285    0.8841 C.3       1 <0>        -0.1707
     22 C15         5.6079    5.1864    2.1861 C.2       1 <0>         0.4635
     23 O4          4.4718    4.7750    2.1813 O.co2     1 <0>        -0.6412
     24 C16         6.0750    5.4343   -1.5828 C.2       1 <0>         0.4764
     25 O5          6.2908    4.5773   -2.4067 O.co2     1 <0>        -0.6246
     26 H2         -3.5522   -0.4692   -2.9132 H         1 <0>         0.0746
     27 H3         -4.3032    0.1063   -1.4055 H         1 <0>         0.0640
     28 H4         -3.9609    1.2528   -2.7233 H         1 <0>         0.0643
     29 H5         -1.5290    0.8765   -2.4191 H         1 <0>         0.0609
     30 H6         -1.8712   -0.2700   -1.1012 H         1 <0>         0.0600
     31 H7          0.0341    0.5887   -1.0610 H         1 <0>         0.1321
     32 H8          2.1238    3.1439    1.6890 H         1 <0>         0.1477
     33 H9          0.0250    4.3213    2.1812 H         1 <0>         0.1390
     34 H10        -2.4733    4.5374    0.5467 H         1 <0>         0.3839
     35 H11         2.4715    0.0097   -0.1457 H         1 <0>         0.1508
     36 H12         7.2197    4.8045    0.8406 H         1 <0>         0.0965
     37 H13         6.6138    6.4780    0.8171 H         1 <0>         0.0920
     38 O6          6.2293    5.4279    3.3511 O.co2     1 <0>        -0.7808
     39 O7          6.4348    6.7045   -1.8255 O.co2     1 <0>        -0.7541
@<TRIPOS>BOND
     1    1    2 1
     2    1   26 1
     3    1   27 1
     4    1   28 1
     5    2    3 1
     6    2   29 1
     7    2   30 1
     8    3    4 1
     9    4    9 ar
    10    4    5 ar
    11    5    6 ar
    12    5   31 1
    13    6    7 ar
    14    6   11 1
    15    7    8 ar
    16    7   32 1
    17    8    9 ar
    18    8   33 1
    19    9   10 1
    20   10   34 1
    21   11   12 2
    22   11   35 1
    23   12   18 1
    24   12   13 1
    25   13   14 2
    26   13   15 am
    27   15   16 1
    28   15   19 1
    29   16   17 2
    30   16   18 1
    31   19   20 1
    32   19   21 1
    33   19   24 1
    34   21   22 1
    35   21   36 1
    36   21   37 1
    37   22   23 2
    38   22   38 1
    39   24   25 2
    40   24   39 1
@<TRIPOS>MOLECULE
ZINC13768706
   39    40     0     0     0
SMALL
USER_CHARGES
(2S)-2-[(5Z)-5-[(2,3-dimethoxyphenyl)methylene]-4-oxo-2-thioxo-thiazolidin-3-yl]butanedioic acid
@<TRIPOS>ATOM
      1 C1          2.5739    4.0068    0.3125 C.3       1 <0>         0.0260
      2 O1          1.3273    3.3690    0.0272 O.3       1 <0>        -0.3074
      3 C2          1.2463    2.0338    0.2733 C.ar      1 <0>         0.1052
      4 C3          2.3437    1.3548    0.7787 C.ar      1 <0>        -0.1911
      5 C4          2.2706   -0.0050    1.0319 C.ar      1 <0>        -0.0776
      6 C5          1.1057   -0.6977    0.7851 C.ar      1 <0>        -0.1240
      7 C6         -0.0125   -0.0265    0.2749 C.ar      1 <0>        -0.0422
      8 C7          0.0630    1.3511    0.0183 C.ar      1 <0>         0.0886
      9 O2         -1.0127    2.0125   -0.4818 O.3       1 <0>        -0.3191
     10 C8         -1.9278    2.5709    0.4632 C.3       1 <0>         0.0326
     11 C9         -1.2566   -0.7595    0.0105 C.2       1 <0>         0.0188
     12 C10        -1.2369   -2.1125   -0.0995 C.2       1 <0>        -0.1670
     13 C11        -2.3602   -3.0639   -0.2138 C.2       1 <0>         0.5510
     14 O3         -3.5179   -2.6884   -0.2205 O.2       1 <0>        -0.4430
     15 N1         -2.0447   -4.3447   -0.3082 N.am      1 <0>        -0.4685
     16 C12        -0.7606   -4.7565   -0.3000 C.2       1 <0>         0.3050
     17 S1         -0.1556   -6.3541   -0.4116 S.2       1 <0>        -0.3223
     18 S2          0.1563   -3.2313   -0.1534 S.3       1 <0>         0.0024
     19 C13        -3.1146   -5.3388   -0.4239 C.3       1 <0>         0.0903
     20 H1         -4.0812   -4.8351   -0.4139 H         1 <0>         0.1125
     21 C14        -2.9547   -6.1098   -1.7357 C.3       1 <0>        -0.1700
     22 C15        -3.1553   -5.1713   -2.8976 C.2       1 <0>         0.4613
     23 O4         -3.4009   -4.0054   -2.6970 O.co2     1 <0>        -0.6394
     24 C16        -3.0362   -6.2983    0.7355 C.2       1 <0>         0.4777
     25 O5         -2.1750   -6.1654    1.5725 O.co2     1 <0>        -0.6244
     26 H2          2.8084    3.8892    1.3705 H         1 <0>         0.0536
     27 H3          3.3612    3.5502   -0.2872 H         1 <0>         0.0555
     28 H4          2.5027    5.0675    0.0718 H         1 <0>         0.0976
     29 H5          3.2614    1.8890    0.9758 H         1 <0>         0.1330
     30 H6          3.1315   -0.5250    1.4254 H         1 <0>         0.1350
     31 H7          1.0546   -1.7578    0.9852 H         1 <0>         0.1469
     32 H8         -2.3367    1.7757    1.0865 H         1 <0>         0.0500
     33 H9         -1.4060    3.2930    1.0912 H         1 <0>         0.0451
     34 H10        -2.7386    3.0699   -0.0675 H         1 <0>         0.0952
     35 H11        -2.1875   -0.2225   -0.0966 H         1 <0>         0.1586
     36 H12        -1.9544   -6.5401   -1.7846 H         1 <0>         0.0969
     37 H13        -3.6960   -6.9076   -1.7809 H         1 <0>         0.0925
     38 O6         -3.0611   -5.6306   -4.1553 O.co2     1 <0>        -0.7817
     39 O7         -3.9230   -7.3006    0.8384 O.co2     1 <0>        -0.7541
@<TRIPOS>BOND
     1    1    2 1
     2    1   26 1
     3    1   27 1
     4    1   28 1
     5    2    3 1
     6    3    8 ar
     7    3    4 ar
     8    4    5 ar
     9    4   29 1
    10    5    6 ar
    11    5   30 1
    12    6    7 ar
    13    6   31 1
    14    7    8 ar
    15    7   11 1
    16    8    9 1
    17    9   10 1
    18   10   32 1
    19   10   33 1
    20   10   34 1
    21   11   12 2
    22   11   35 1
    23   12   18 1
    24   12   13 1
    25   13   14 2
    26   13   15 am
    27   15   16 1
    28   15   19 1
    29   16   17 2
    30   16   18 1
    31   19   20 1
    32   19   21 1
    33   19   24 1
    34   21   22 1
    35   21   36 1
    36   21   37 1
    37   22   23 2
    38   22   38 1
    39   24   25 2
    40   24   39 1
@<TRIPOS>MOLECULE
ZINC37592640
   35    36     0     0     0
SMALL
USER_CHARGES

@<TRIPOS>ATOM
      1 C1         -0.0188    1.5373    0.0105 C.3       1 <0>        -0.1167
      2 C2          1.4545    1.9975   -0.0011 C.3       1 <0>        -0.1231
      3 C3          2.2382    0.7924    0.5813 C.3       1 <0>        -0.0985
      4 C4          1.4772   -0.4133    0.0070 C.3       1 <0>        -0.1047
      5 C5          0.0021   -0.0041    0.0020 C.3       1 <0>        -0.1019
      6 C6          1.7116   -1.6705    0.8487 C.3       1 <0>        -0.1476
      7 C7          2.3214   -2.6399   -0.1452 C.2       1 <0>         0.5210
      8 O1          2.6675   -3.7751    0.1021 O.2       1 <0>        -0.4373
      9 N1          2.4173   -2.0411   -1.3409 N.am      1 <0>        -0.5387
     10 C8          1.9667   -0.7763   -1.3652 C.2       1 <0>         0.5362
     11 O2          1.9564   -0.0483   -2.3346 O.2       1 <0>        -0.5001
     12 C9          2.9681   -2.7104   -2.5220 C.3       1 <0>         0.0580
     13 H1          2.9435   -2.0275   -3.3712 H         1 <0>         0.0876
     14 C10         2.1321   -3.9514   -2.8412 C.3       1 <0>        -0.0879
     15 C11         0.7180   -3.5249   -3.2403 C.3       1 <0>        -0.1741
     16 C12        -0.1054   -4.7473   -3.5546 C.2       1 <0>         0.4931
     17 O3          0.3926   -5.8568   -3.4676 O.co2     1 <0>        -0.6948
     18 O4         -1.2696   -4.6268   -3.8961 O.co2     1 <0>        -0.7200
     19 C13         4.3922   -3.1207   -2.2485 C.2       1 <0>         0.4972
     20 O5          4.7397   -3.3964   -1.1128 O.co2     1 <0>        -0.6732
     21 O6          5.1967   -3.1770   -3.1628 O.co2     1 <0>        -0.6996
     22 H2         -0.5161    1.8991    0.9105 H         1 <0>         0.0613
     23 H3         -0.5331    1.9087   -0.8759 H         1 <0>         0.0645
     24 H4          1.7802    2.2072   -1.0200 H         1 <0>         0.0750
     25 H5          1.5839    2.8769    0.6298 H         1 <0>         0.0625
     26 H6          3.2713    0.7987    0.2339 H         1 <0>         0.0720
     27 H7          2.1954    0.7935    1.6705 H         1 <0>         0.0796
     28 H8         -0.4967   -0.3902    0.8910 H         1 <0>         0.0774
     29 H9         -0.4878   -0.3803   -0.8961 H         1 <0>         0.0733
     30 H10         2.4069   -1.4651    1.6626 H         1 <0>         0.1101
     31 H11         0.7684   -2.0571    1.2347 H         1 <0>         0.1097
     32 H12         2.5927   -4.4979   -3.6642 H         1 <0>         0.0713
     33 H13         2.0834   -4.5929   -1.9613 H         1 <0>         0.0739
     34 H14         0.2575   -2.9784   -2.4173 H         1 <0>         0.0430
     35 H15         0.7667   -2.8835   -4.1202 H         1 <0>         0.0515
@<TRIPOS>BOND
     1    1    5 1
     2    1    2 1
     3    1   22 1
     4    1   23 1
     5    2    3 1
     6    2   24 1
     7    2   25 1
     8    3    4 1
     9    3   26 1
    10    3   27 1
    11    4   10 1
    12    4    5 1
    13    4    6 1
    14    5   28 1
    15    5   29 1
    16    6    7 1
    17    6   30 1
    18    6   31 1
    19    7    8 2
    20    7    9 am
    21    9   10 am
    22    9   12 1
    23   10   11 2
    24   12   13 1
    25   12   14 1
    26   12   19 1
    27   14   15 1
    28   14   32 1
    29   14   33 1
    30   15   16 1
    31   15   34 1
    32   15   35 1
    33   16   17 2
    34   16   18 1
    35   19   20 2
    36   19   21 1
@<TRIPOS>MOLECULE
ZINC13450679
   45    46     0     0     0
SMALL
USER_CHARGES

@<TRIPOS>ATOM
      1 C1         -0.0127    1.0858    0.0080 C.3       1 <0>        -0.0914
      2 C2         -0.7416    1.5850   -1.2129 C.ar      1 <0>         0.1573
      3 C3         -2.1064    1.7992   -1.1728 C.ar      1 <0>        -0.2687
      4 C4         -2.7418    2.2620   -2.3247 C.ar      1 <0>         0.4447
      5 O1         -4.0784    2.4858   -2.3293 O.3       1 <0>        -0.6914
      6 N1         -2.0193    2.4807   -3.4162 N.ar      1 <0>        -0.6203
      7 C5         -0.7117    2.2634   -3.4154 C.ar      1 <0>         0.3063
      8 N2         -0.0804    1.8286   -2.3343 N.ar      1 <0>        -0.5840
      9 S1          0.2107    2.5664   -4.8858 S.3       1 <0>        -0.0005
     10 C6         -1.0336    3.1415   -6.0738 C.3       1 <0>        -0.0995
     11 H1         -1.5699    3.9930   -5.6547 H         1 <0>         0.1163
     12 C7         -2.0214    2.0102   -6.3657 C.3       1 <0>        -0.1389
     13 C8         -0.3531    3.5566   -7.3527 C.2       1 <0>         0.5449
     14 O2          0.7236    3.0828   -7.6481 O.2       1 <0>        -0.5205
     15 N3         -0.9409    4.4542   -8.1683 N.am      1 <0>        -0.7205
     16 C9         -0.2793    4.8577   -9.4115 C.3       1 <0>         0.1479
     17 H2          0.8000    4.8696   -9.2596 H         1 <0>         0.1131
     18 C10        -0.6272    3.8546  -10.5238 C.3       1 <0>        -0.1475
     19 C11        -0.1819    4.4651  -11.8833 C.3       1 <0>        -0.5675
     20 S2         -0.6921    6.2198  -11.6482 S.o2      1 <0>         2.3766
     21 O3         -2.0057    6.3922  -12.1620 O.2       1 <0>        -0.9344
     22 O4          0.3529    7.0698  -12.1008 O.2       1 <0>        -0.9381
     23 C12        -0.7575    6.2743   -9.8118 C.3       1 <0>        -0.5947
     24 C13        -2.8905    1.5379    0.0873 C.3       1 <0>        -0.0165
     25 C14        -2.9300    2.8100    0.9364 C.3       1 <0>        -0.1651
     26 C15        -3.7141    2.5488    2.1966 C.2       1 <0>         0.4942
     27 O5         -4.1966    1.4472    2.3970 O.co2     1 <0>        -0.7029
     28 O6         -3.8659    3.4390    3.0157 O.co2     1 <0>        -0.7218
     29 H3          0.0021   -0.0041    0.0020 H         1 <0>         0.0637
     30 H4          1.0099    1.4631    0.0003 H         1 <0>         0.0610
     31 H5         -0.5229    1.4373    0.9048 H         1 <0>         0.0749
     32 H6         -1.4851    1.1587   -6.7847 H         1 <0>         0.0595
     33 H7         -2.5136    1.7100   -5.4406 H         1 <0>         0.1044
     34 H8         -2.7691    2.3558   -7.0795 H         1 <0>         0.0549
     35 H9         -1.8020    4.8332   -7.9320 H         1 <0>         0.4090
     36 H10        -0.1001    2.9162  -10.3513 H         1 <0>         0.1093
     37 H11        -1.7024    3.6757  -10.5351 H         1 <0>         0.0936
     38 H12         0.8966    4.3828  -12.0179 H         1 <0>         0.1415
     39 H13        -0.7170    4.0071  -12.7152 H         1 <0>         0.1427
     40 H14        -1.7762    6.4503   -9.4662 H         1 <0>         0.1476
     41 H15        -0.0798    7.0349   -9.4241 H         1 <0>         0.1499
     42 H16        -3.9072    1.2425   -0.1720 H         1 <0>         0.0642
     43 H17        -2.4129    0.7380    0.6532 H         1 <0>         0.0481
     44 H18        -1.9133    3.1055    1.1958 H         1 <0>         0.0444
     45 H19        -3.4076    3.6099    0.3706 H         1 <0>         0.0543
@<TRIPOS>BOND
     1    1   29 1
     2    1   30 1
     3    1   31 1
     4    1    2 1
     5    2    3 ar
     6    2    8 ar
     7    3    4 ar
     8    3   24 1
     9    4    6 ar
    10    4    5 1
    11    6    7 ar
    12    7    8 ar
    13    7    9 1
    14    9   10 1
    15   10   11 1
    16   10   12 1
    17   10   13 1
    18   12   32 1
    19   12   33 1
    20   12   34 1
    21   13   14 2
    22   13   15 am
    23   15   16 1
    24   15   35 1
    25   16   17 1
    26   16   23 1
    27   16   18 1
    28   18   19 1
    29   18   36 1
    30   18   37 1
    31   19   20 1
    32   19   38 1
    33   19   39 1
    34   20   21 2
    35   20   22 2
    36   20   23 1
    37   23   40 1
    38   23   41 1
    39   24   25 1
    40   24   42 1
    41   24   43 1
    42   25   26 1
    43   25   44 1
    44   25   45 1
    45   26   27 2
    46   26   28 1
@<TRIPOS>MOLECULE
ZINC62282219
   30    30     0     0     0
SMALL
USER_CHARGES

@<TRIPOS>ATOM
      1 C1         -0.0187    1.5258    0.0104 C.3       1 <0>        -0.1463
      2 C2          0.0021   -0.0041    0.0020 C.3       1 <0>        -0.1032
      3 C3          0.7182   -0.4975   -1.2568 C.3       1 <0>         0.0686
      4 H1          1.7103   -0.0491   -1.3098 H         1 <0>         0.0958
      5 C4         -0.0771   -0.1029   -2.4745 C.2       1 <0>         0.5029
      6 O1         -1.1200    0.5157   -2.3473 O.co2     1 <0>        -0.6693
      7 O2          0.3224   -0.4021   -3.5868 O.co2     1 <0>        -0.6792
      8 N1          0.8437   -1.9563   -1.2071 N.pl3     1 <0>        -0.2484
      9 C5          2.0035   -2.6531   -1.2183 C.2       1 <0>        -0.0357
     10 C6          1.6585   -3.9605   -1.1593 C.2       1 <0>        -0.0160
     11 N2          0.3221   -3.9991   -1.1156 N.2       1 <0>        -0.2898
     12 N3         -0.1302   -2.7951   -1.1399 N.2       1 <0>        -0.0873
     13 C7          2.5956   -5.1407   -1.1460 C.3       1 <0>        -0.0036
     14 C8          2.9588   -5.4873    0.2992 C.3       1 <0>        -0.1715
     15 C9          3.8959   -6.6674    0.3125 C.2       1 <0>         0.4936
     16 O3          4.2412   -7.1835   -0.7368 O.co2     1 <0>        -0.6998
     17 O4          4.3087   -7.1062    1.3725 O.co2     1 <0>        -0.7137
     18 C10         3.3988   -2.0873   -1.2837 C.3       1 <0>        -0.0722
     19 H2          1.0039    1.9031    0.0027 H         1 <0>         0.0393
     20 H3         -0.5459    1.8868   -0.8726 H         1 <0>         0.0885
     21 H4         -0.5289    1.8773    0.9072 H         1 <0>         0.0460
     22 H5          0.5293   -0.3651    0.8851 H         1 <0>         0.0457
     23 H6         -1.0205   -0.3814    0.0098 H         1 <0>         0.0774
     24 H7          2.1086   -5.9965   -1.6135 H         1 <0>         0.0737
     25 H8          3.5015   -4.8916   -1.6986 H         1 <0>         0.0724
     26 H9          3.4457   -4.6314    0.7667 H         1 <0>         0.0539
     27 H10         2.0529   -5.7364    0.8518 H         1 <0>         0.0575
     28 H11         3.7678   -1.9128   -0.2730 H         1 <0>         0.0702
     29 H12         4.0540   -2.7941   -1.7928 H         1 <0>         0.0846
     30 H13         3.3836   -1.1457   -1.8325 H         1 <0>         0.0660
@<TRIPOS>BOND
     1    1    2 1
     2    1   19 1
     3    1   20 1
     4    1   21 1
     5    2    3 1
     6    2   22 1
     7    2   23 1
     8    3    4 1
     9    3    5 1
    10    3    8 1
    11    5    6 2
    12    5    7 1
    13    8   12 1
    14    8    9 1
    15    9   10 2
    16    9   18 1
    17   10   11 1
    18   10   13 1
    19   11   12 2
    20   13   14 1
    21   13   24 1
    22   13   25 1
    23   14   15 1
    24   14   26 1
    25   14   27 1
    26   15   16 2
    27   15   17 1
    28   18   28 1
    29   18   29 1
    30   18   30 1
@<TRIPOS>MOLECULE
ZINC03865749
   23    23     0     0     0
SMALL
USER_CHARGES
1,1-dioxo-3,4-disulfooxy-thiolane
@<TRIPOS>ATOM
      1 C1         -0.0988    5.8143    2.2181 C.3       1 <0>        -0.5896
      2 C2         -0.1869    4.8020    1.0420 C.3       1 <0>         0.1220
      3 H1          0.0789    5.3062    0.1129 H         1 <0>         0.1248
      4 C3          0.7705    3.6342    1.2753 C.3       1 <0>         0.1228
      5 H2          0.2429    2.8543    1.8243 H         1 <0>         0.1221
      6 C4          2.0331    4.0240    2.0685 C.3       1 <0>        -0.5822
      7 S1          1.7237    5.7832    2.5149 S.o2      1 <0>         2.3728
      8 O1          2.3659    6.6256    1.5676 O.2       1 <0>        -0.9253
      9 O2          1.9746    5.9646    3.9017 O.2       1 <0>        -0.9405
     10 O3          1.1700    3.1094    0.0076 O.3       1 <0>        -0.7605
     11 S2          1.3708    1.6007   -0.0024 S.o2      1 <0>         2.7654
     12 O4          1.9822    1.2642    1.2353 O.2       1 <0>        -1.0928
     13 O5          1.9585    1.2775   -1.2552 O.2       1 <0>        -1.0608
     14 O6         -1.5233    4.3055    0.9447 O.3       1 <0>        -0.7532
     15 S3         -2.3963    5.0670   -0.0425 S.o2      1 <0>         2.7646
     16 O7         -3.7226    4.5891    0.1355 O.2       1 <0>        -1.0606
     17 O8         -2.0571    6.4405    0.0909 O.2       1 <0>        -1.0925
     18 H3         -0.4351    6.8058    1.9150 H         1 <0>         0.1680
     19 H4         -0.6493    5.4599    3.0895 H         1 <0>         0.1542
     20 H5          2.1289    3.4109    2.9646 H         1 <0>         0.1627
     21 H6          2.9221    3.9361    1.4441 H         1 <0>         0.1557
     22 O9         -0.0110    0.9628    0.0073 O.3       1 <0>        -1.0896
     23 O10        -1.9664    4.6465   -1.4407 O.3       1 <0>        -1.0875
@<TRIPOS>BOND
     1    1    7 1
     2    1    2 1
     3    1   18 1
     4    1   19 1
     5    2    3 1
     6    2    4 1
     7    2   14 1
     8    4    5 1
     9    4    6 1
    10    4   10 1
    11    6    7 1
    12    6   20 1
    13    6   21 1
    14    7    8 2
    15    7    9 2
    16   10   11 1
    17   11   12 2
    18   11   13 2
    19   11   22 1
    20   14   15 1
    21   15   16 2
    22   15   17 2
    23   15   23 1
@<TRIPOS>MOLECULE
ZINC00858149
   42    43     0     0     0
SMALL
USER_CHARGES
4-[(2R)-4-hydroxy-2-(4-methoxyphenyl)-3-methylsulfonyl-5-oxo-2H-pyrrol-1-yl]butanoic acid
@<TRIPOS>ATOM
      1 C1         -3.8498    2.2566    5.8662 C.3       1 <0>         0.0262
      2 O1         -4.3051    1.6605    4.6499 O.3       1 <0>        -0.3223
      3 C2         -3.5679    1.8973    3.5331 C.ar      1 <0>         0.1103
      4 C3         -3.9523    1.3496    2.3178 C.ar      1 <0>        -0.1511
      5 C4         -3.2009    1.5914    1.1840 C.ar      1 <0>        -0.0848
      6 C5         -2.0665    2.3781    1.2598 C.ar      1 <0>        -0.1124
      7 C6         -1.6781    2.9205    2.4709 C.ar      1 <0>        -0.0550
      8 C7         -2.4294    2.6867    3.6064 C.ar      1 <0>        -0.2066
      9 C8         -1.2485    2.6399    0.0215 C.3       1 <0>         0.2780
     10 H1         -1.8909    2.4713   -0.8553 H         1 <0>         0.0816
     11 C9         -0.0218    1.7577    0.0117 C.2       1 <0>        -0.9513
     12 C10         1.0386    2.5650    0.0059 C.2       1 <0>         0.3247
     13 C11         0.5937    3.9666    0.0168 C.2       1 <0>         0.5071
     14 O2          1.3317    4.9330    0.0151 O.2       1 <0>        -0.5362
     15 N1         -0.7513    4.0217    0.0294 N.am      1 <0>        -0.6012
     16 C12        -1.5690    5.2371    0.0428 C.3       1 <0>         0.1351
     17 C13        -1.8664    5.6677   -1.3949 C.3       1 <0>        -0.1156
     18 C14        -2.7204    6.9370   -1.3809 C.3       1 <0>        -0.1523
     19 C15        -3.0133    7.3611   -2.7970 C.2       1 <0>         0.4609
     20 O3         -2.5831    6.7144   -3.7225 O.co2     1 <0>        -0.6369
     21 O4         -3.7521    8.4573   -3.0301 O.co2     1 <0>        -0.7871
     22 O5          2.3351    2.1549   -0.0075 O.3       1 <0>        -0.6196
     23 S1          0.0021   -0.0041    0.0020 S.o2      1 <0>         2.5405
     24 O6         -0.8668   -0.3726   -1.0603 O.2       1 <0>        -0.9766
     25 O7          1.3803   -0.3478   -0.0370 O.2       1 <0>        -0.9446
     26 C16        -0.7179   -0.4888    1.5949 C.3       1 <0>        -0.6727
     27 H2         -4.5327    1.9863    6.6851 H         1 <0>         0.0943
     28 H3         -3.8282    3.3505    5.7527 H         1 <0>         0.0541
     29 H4         -2.8380    1.8918    6.0970 H         1 <0>         0.0535
     30 H5         -4.8379    0.7344    2.2582 H         1 <0>         0.1277
     31 H6         -3.4998    1.1652    0.2377 H         1 <0>         0.1379
     32 H7         -0.7890    3.5308    2.5285 H         1 <0>         0.1236
     33 H8         -2.1283    3.1145    4.5512 H         1 <0>         0.1225
     34 H9         -2.5143    5.0373    0.5687 H         1 <0>         0.0712
     35 H10        -1.0240    6.0400    0.5607 H         1 <0>         0.0735
     36 H11        -0.9211    5.8676   -1.9208 H         1 <0>         0.0655
     37 H12        -2.4114    4.8648   -1.9129 H         1 <0>         0.0647
     38 H13        -3.6657    6.7371   -0.8551 H         1 <0>         0.0618
     39 H14        -2.1754    7.7399   -0.8630 H         1 <0>         0.0623
     40 H15        -0.7394   -1.5861    1.6688 H         1 <0>         0.1075
     41 H16        -1.7428   -0.0961    1.6687 H         1 <0>         0.1225
     42 H17        -0.1081   -0.0781    2.4131 H         1 <0>         0.1193
@<TRIPOS>BOND
     1    1    2 1
     2    1   27 1
     3    1   28 1
     4    1   29 1
     5    2    3 1
     6    3    8 ar
     7    3    4 ar
     8    4    5 ar
     9    4   30 1
    10    5    6 ar
    11    5   31 1
    12    6    7 ar
    13    6    9 1
    14    7    8 ar
    15    7   32 1
    16    8   33 1
    17    9   10 1
    18    9   15 1
    19    9   11 1
    20   11   12 2
    21   11   23 1
    22   12   13 1
    23   12   22 1
    24   13   14 2
    25   13   15 am
    26   15   16 1
    27   16   17 1
    28   16   34 1
    29   16   35 1
    30   17   18 1
    31   17   36 1
    32   17   37 1
    33   18   19 1
    34   18   38 1
    35   18   39 1
    36   19   20 2
    37   19   21 1
    38   23   24 2
    39   23   25 2
    40   23   26 1
    41   26   40 1
    42   26   41 1
    43   26   42 1
@<TRIPOS>MOLECULE
ZINC03871853
   27    28     0     0     0
SMALL
USER_CHARGES

@<TRIPOS>ATOM
      1 C1         -0.3534    1.4846    0.2622 C.3       1 <0>        -0.0979
      2 C2         -0.1826   -0.0323    0.1594 C.3       1 <0>        -0.1292
      3 C3          0.4709   -0.4234   -1.2000 C.3       1 <0>         0.0882
      4 H1         -0.2162   -0.5066   -2.0420 H         1 <0>         0.1031
      5 C4          1.6479    0.5790   -1.3947 C.3       1 <0>        -0.1567
      6 C5          2.6913    0.0884   -0.3587 C.3       1 <0>        -0.1557
      7 C6          1.9786   -1.1323    0.2970 C.3       1 <0>         0.0848
      8 H2          2.6375   -1.8542    0.7796 H         1 <0>         0.1036
      9 C7          0.8520   -0.5399    1.1960 C.3       1 <0>        -0.1243
     10 C8          0.2333   -1.6065    2.1018 C.3       1 <0>        -0.1114
     11 C9          1.3964    0.6046    2.0114 C.2       1 <0>         0.5147
     12 O1          0.6387    1.4471    2.4614 O.co2     1 <0>        -0.6814
     13 O2          2.5946    0.6880    2.2210 O.co2     1 <0>        -0.7121
     14 O3          1.1783   -1.6533   -0.8336 O.3       1 <0>        -0.3812
     15 C10        -1.5060   -0.7301    0.3403 C.2       1 <0>         0.5180
     16 O4         -1.6861   -1.8321   -0.1492 O.co2     1 <0>        -0.7063
     17 O5         -2.3967   -0.1925    0.9762 O.co2     1 <0>        -0.7047
     18 H3          0.6271    1.9604    0.2779 H         1 <0>         0.0393
     19 H4         -0.9188    1.8456   -0.5969 H         1 <0>         0.0055
     20 H5         -0.8903    1.7285    1.1789 H         1 <0>         0.0851
     21 H6          2.0479    0.5131   -2.4065 H         1 <0>         0.0452
     22 H7          1.3294    1.5969   -1.1697 H         1 <0>         0.0762
     23 H8          3.6111   -0.2219   -0.8543 H         1 <0>         0.0414
     24 H9          2.8927    0.8619    0.3825 H         1 <0>         0.1179
     25 H10        -0.0242   -2.4832    1.5073 H         1 <0>         0.0559
     26 H11         0.9499   -1.8883    2.8732 H         1 <0>         0.0259
     27 H12        -0.6668   -1.2080    2.5700 H         1 <0>         0.0560
@<TRIPOS>BOND
     1    1    2 1
     2    1   18 1
     3    1   19 1
     4    1   20 1
     5    2    9 1
     6    2    3 1
     7    2   15 1
     8    3    4 1
     9    3   14 1
    10    3    5 1
    11    5    6 1
    12    5   21 1
    13    5   22 1
    14    6    7 1
    15    6   23 1
    16    6   24 1
    17    7    8 1
    18    7    9 1
    19    7   14 1
    20    9   10 1
    21    9   11 1
    22   10   25 1
    23   10   26 1
    24   10   27 1
    25   11   12 2
    26   11   13 1
    27   15   16 2
    28   15   17 1
@<TRIPOS>MOLECULE
ZINC47145072
   33    36     0     0     0
SMALL
USER_CHARGES

@<TRIPOS>ATOM
      1 C1         -0.0157    1.3379    0.0680 C.2       1 <0>        -0.2093
      2 C2          1.3322    1.7637    0.1000 C.2       1 <0>        -0.1641
      3 C3          2.0923    0.6599   -0.0144 C.2       1 <0>        -0.0363
      4 O1          1.2810   -0.4058   -0.1134 O.3       1 <0>        -0.1743
      5 C4          0.0015   -0.0006   -0.0640 C.2       1 <0>        -0.0242
      6 C5          3.5989    0.6249   -0.0294 C.3       1 <0>         0.1165
      7 H1          3.9878    1.6394   -0.1175 H         1 <0>         0.1418
      8 C6          4.0732   -0.2004   -1.1923 C.2       1 <0>        -0.2078
      9 C7          4.4938   -1.4842   -1.2197 C.2       1 <0>         0.1027
     10 N1          4.8825   -1.9417   -2.4540 N.am      1 <0>        -0.6363
     11 H2          5.2076   -2.8501   -2.5544 H         1 <0>         0.4133
     12 C8          4.8121   -1.1292   -3.5257 C.2       1 <0>         0.4735
     13 O2          5.1101   -1.3752   -4.6813 O.2       1 <0>        -0.4660
     14 S1          4.2132    0.3067   -2.8859 S.3       1 <0>         0.0839
     15 S2          4.5114   -2.4808    0.2638 S.3       1 <0>         0.0247
     16 C9          3.5078   -1.4424    1.3573 C.3       1 <0>        -0.1396
     17 H3          2.4548   -1.4682    1.0771 H         1 <0>         0.1687
     18 C10         4.1039   -0.0024    1.2457 C.3       1 <0>        -0.1290
     19 H4          5.1919   -0.0617    1.2168 H         1 <0>         0.1434
     20 C11         3.6865    0.5767    2.5604 C.2       1 <0>         0.5594
     21 O3          3.4374    1.7389    2.7987 O.2       1 <0>        -0.4523
     22 N2          3.6436   -0.4635    3.4337 N.am      1 <0>        -0.5522
     23 C12         3.6969   -1.7083    2.8256 C.2       1 <0>         0.5765
     24 O4          3.8728   -2.7855    3.3532 O.2       1 <0>        -0.4518
     25 C13         3.5290   -0.2894    4.8838 C.3       1 <0>         0.0300
     26 C14         2.0734   -0.2620    5.2730 C.2       1 <0>         0.4868
     27 O5          1.2116   -0.3772    4.4183 O.co2     1 <0>        -0.6804
     28 O6          1.7575   -0.1246    6.4426 O.co2     1 <0>        -0.6880
     29 H5         -0.8910    1.9664    0.1404 H         1 <0>         0.1499
     30 H6          1.6839    2.7802    0.1970 H         1 <0>         0.1517
     31 H7         -0.8664   -0.6409   -0.1204 H         1 <0>         0.2034
     32 H8          4.0247   -1.1180    5.3895 H         1 <0>         0.0931
     33 H9          4.0008    0.6489    5.1755 H         1 <0>         0.0924
@<TRIPOS>BOND
     1    1    5 2
     2    1    2 1
     3    1   29 1
     4    2    3 2
     5    2   30 1
     6    3    4 1
     7    3    6 1
     8    4    5 1
     9    5   31 1
    10    6    7 1
    11    6   18 1
    12    6    8 1
    13    8   14 1
    14    8    9 2
    15    9   10 1
    16    9   15 1
    17   10   11 1
    18   10   12 am
    19   12   13 2
    20   12   14 1
    21   15   16 1
    22   16   17 1
    23   16   23 1
    24   16   18 1
    25   18   19 1
    26   18   20 1
    27   20   21 2
    28   20   22 am
    29   22   23 am
    30   22   25 1
    31   23   24 2
    32   25   26 1
    33   25   32 1
    34   25   33 1
    35   26   27 2
    36   26   28 1
@<TRIPOS>MOLECULE
ZINC58951131
   30    31     0     0     0
SMALL
USER_CHARGES

@<TRIPOS>ATOM
      1 C1          0.0635    1.4223    0.0356 C.3       1 <0>         0.2019
      2 N1          0.0560   -0.0427    0.0360 N.am      1 <0>        -0.6095
      3 C2         -1.1436   -0.9058    0.1169 C.3       1 <0>         0.3659
      4 H1         -1.9393   -0.5261   -0.5240 H         1 <0>         0.0759
      5 C3         -0.6165   -2.2463   -0.4053 C.3       1 <0>         0.3580
      6 H2         -0.8222   -2.3314   -1.4723 H         1 <0>         0.1036
      7 N2          0.8364   -2.1396   -0.1866 N.am      1 <0>        -0.6451
      8 C4          1.1365   -0.8375   -0.0429 C.2       1 <0>         0.6996
      9 O1          2.2769   -0.4196    0.0140 O.2       1 <0>        -0.6167
     10 C5          1.7856   -3.2545   -0.1403 C.3       1 <0>         0.1420
     11 N3         -1.1598   -3.3955    0.2901 N.am      1 <0>        -0.6397
     12 C6         -1.4122   -3.3827    1.7328 C.3       1 <0>         0.1161
     13 C7         -2.2626   -2.1435    2.0482 C.3       1 <0>         0.1213
     14 N4         -1.5823   -0.9640    1.5043 N.am      1 <0>        -0.6627
     15 C8         -1.3384    0.0865    2.3127 C.2       1 <0>         0.6598
     16 O2         -0.8692    1.1174    1.8511 O.co2     1 <0>        -0.7054
     17 O3         -1.5862    0.0089    3.5079 O.co2     1 <0>        -0.7261
     18 C9         -1.4420   -4.5106   -0.4123 C.2       1 <0>         0.6631
     19 O4         -1.2388   -4.5416   -1.6181 O.co2     1 <0>        -0.7214
     20 O5         -1.9012   -5.4915    0.1559 O.co2     1 <0>        -0.7190
     21 H3          0.6229    1.7829    0.8987 H         1 <0>         0.0602
     22 H4          0.5341    1.7829   -0.8790 H         1 <0>        -0.0091
     23 H5         -0.9610    1.7909    0.0868 H         1 <0>         0.0750
     24 H6          2.1676   -3.4484   -1.1426 H         1 <0>         0.0404
     25 H7          2.6137   -2.9994    0.5211 H         1 <0>         0.0551
     26 H8          1.2819   -4.1452    0.2352 H         1 <0>         0.0660
     27 H9         -1.9524   -4.2844    2.0213 H         1 <0>         0.0891
     28 H10        -0.4668   -3.3290    2.2727 H         1 <0>         0.0361
     29 H11        -3.2427   -2.2402    1.5811 H         1 <0>         0.0389
     30 H12        -2.3762   -2.0391    3.1272 H         1 <0>         0.0867
@<TRIPOS>BOND
     1    1    2 1
     2    1   21 1
     3    1   22 1
     4    1   23 1
     5    2    8 am
     6    2    3 1
     7    3    4 1
     8    3   14 1
     9    3    5 1
    10    5    6 1
    11    5    7 1
    12    5   11 1
    13    7    8 am
    14    7   10 1
    15    8    9 2
    16   10   24 1
    17   10   25 1
    18   10   26 1
    19   11   12 1
    20   11   18 am
    21   12   13 1
    22   12   27 1
    23   12   28 1
    24   13   14 1
    25   13   29 1
    26   13   30 1
    27   14   15 am
    28   15   16 2
    29   15   17 1
    30   18   19 2
    31   18   20 1
@<TRIPOS>MOLECULE
ZINC06036103
   29    28     0     0     0
SMALL
USER_CHARGES
3-(2-acetylamino-2-carboxy-ethyl)sulfanylbutanoic acid
@<TRIPOS>ATOM
      1 C1         -2.3006   -3.0581    0.1333 C.3       1 <0>        -0.1423
      2 C2         -0.9927   -2.2755   -0.0007 C.3       1 <0>        -0.0425
      3 H1         -0.3354   -2.5207    0.8336 H         1 <0>         0.0823
      4 C3         -1.2926   -0.7753    0.0102 C.3       1 <0>        -0.1391
      5 C4          0.0021   -0.0041    0.0020 C.2       1 <0>         0.4560
      6 O1          1.0565   -0.5939   -0.0112 O.co2     1 <0>        -0.6085
      7 S1         -0.1802   -2.7184   -1.5609 S.3       1 <0>        -0.2305
      8 C5          0.2402   -4.4709   -1.3548 C.3       1 <0>        -0.0754
      9 C6          0.9409   -4.9791   -2.6164 C.3       1 <0>         0.1213
     10 H2          1.8518   -4.4041   -2.7827 H         1 <0>         0.0973
     11 C7          1.2902   -6.4350   -2.4451 C.2       1 <0>         0.4682
     12 O2          0.8395   -7.2580   -3.2064 O.co2     1 <0>        -0.6313
     13 N1          0.0480   -4.8232   -3.7673 N.am      1 <0>        -0.6925
     14 H3         -0.9128   -4.7995   -3.6361 H         1 <0>         0.3935
     15 C8          0.5615   -4.7128   -5.0085 C.2       1 <0>         0.5116
     16 O3          1.7628   -4.7425   -5.1726 O.2       1 <0>        -0.5598
     17 C9         -0.3570   -4.5525   -6.1925 C.3       1 <0>        -0.1639
     18 H4         -2.9578   -2.8129   -0.7009 H         1 <0>         0.0601
     19 H5         -2.0869   -4.1269    0.1256 H         1 <0>         0.0511
     20 H6         -2.7888   -2.7920    1.0709 H         1 <0>         0.0536
     21 H7         -1.8592   -0.5245    0.9070 H         1 <0>         0.0709
     22 H8         -1.8762   -0.5150   -0.8728 H         1 <0>         0.0679
     23 H9          0.9046   -4.5869   -0.4985 H         1 <0>         0.0969
     24 H10        -0.6707   -5.0459   -1.1884 H         1 <0>         0.0679
     25 H11        -0.5386   -3.4926   -6.3705 H         1 <0>         0.0854
     26 H12         0.1063   -4.9949   -7.0743 H         1 <0>         0.0829
     27 H13        -1.3031   -5.0540   -5.9888 H         1 <0>         0.0734
     28 O4         -0.0161    1.3381    0.0094 O.co2     1 <0>        -0.7901
     29 O5          2.1020   -6.8176   -1.4469 O.co2     1 <0>        -0.7644
@<TRIPOS>BOND
     1    1    2 1
     2    1   18 1
     3    1   19 1
     4    1   20 1
     5    2    3 1
     6    2    4 1
     7    2    7 1
     8    4    5 1
     9    4   21 1
    10    4   22 1
    11    5    6 2
    12    5   28 1
    13    7    8 1
    14    8    9 1
    15    8   23 1
    16    8   24 1
    17    9   10 1
    18    9   11 1
    19    9   13 1
    20   11   12 2
    21   11   29 1
    22   13   14 1
    23   13   15 am
    24   15   16 2
    25   15   17 1
    26   17   25 1
    27   17   26 1
    28   17   27 1
@<TRIPOS>MOLECULE
ZINC28395182
   31    31     0     0     0
SMALL
USER_CHARGES
(2S)-3-(carboxymethylsulfanyl)-2-[(4-fluorophenyl)sulfonylamino]propanoic acid
@<TRIPOS>ATOM
      1 C1          2.3639    7.6970   -2.2830 C.ar      1 <0>        -0.1683
      2 C2          3.0040    6.5852   -1.7691 C.ar      1 <0>         0.0207
      3 C3          2.5566    5.3180   -2.0934 C.ar      1 <0>        -0.6884
      4 C4          1.4720    5.1613   -2.9362 C.ar      1 <0>         0.0089
      5 C5          0.8271    6.2717   -3.4470 C.ar      1 <0>        -0.1741
      6 C6          1.2743    7.5414   -3.1229 C.ar      1 <0>         0.1495
      7 F1          0.6475    8.6276   -3.6255 F         1 <0>        -0.1377
      8 S1          3.3741    3.9013   -1.4380 S.o2      1 <0>         2.6952
      9 O1          4.6976    4.3078   -1.1183 O.2       1 <0>        -0.9766
     10 O2          3.1008    2.8271   -2.3272 O.2       1 <0>        -0.9474
     11 N1          2.6340    3.5287   -0.0041 N.pl3     1 <0>        -1.0844
     12 C7          1.2350    3.0943    0.0069 C.3       1 <0>         0.1418
     13 H1          0.7578    3.4904   -0.9016 H         1 <0>         0.0803
     14 C8          0.5460    3.6251    1.2656 C.3       1 <0>        -0.0915
     15 S2          0.4854    5.4370    1.2033 S.3       1 <0>        -0.2287
     16 C9         -0.3492    5.9015    2.7455 C.3       1 <0>        -0.1259
     17 C10        -0.4662    7.4021    2.8211 C.2       1 <0>         0.4815
     18 O3         -0.0313    8.0878    1.9263 O.co2     1 <0>        -0.6149
     19 O4         -1.0537    7.9768    3.8823 O.co2     1 <0>        -0.7696
     20 C11         1.1765    1.5884   -0.0006 C.2       1 <0>         0.4673
     21 O5          2.1986    0.9442   -0.0139 O.co2     1 <0>        -0.6138
     22 O6         -0.0110    0.9628    0.0073 O.co2     1 <0>        -0.7666
     23 H2          2.7133    8.6869   -2.0292 H         1 <0>         0.1406
     24 H3          3.8537    6.7064   -1.1136 H         1 <0>         0.1466
     25 H4          1.1260    4.1707   -3.1921 H         1 <0>         0.1473
     26 H5         -0.0227    6.1491   -4.1021 H         1 <0>         0.1399
     27 H6          3.1437    3.7660    0.9414 H         1 <0>         0.4365
     28 H7         -0.4775    3.2256    1.3195 H         1 <0>         0.0960
     29 H8          1.1108    3.3074    2.1545 H         1 <0>         0.0769
     30 H9         -1.3537    5.4538    2.7680 H         1 <0>         0.0798
     31 H10         0.2346    5.5356    3.6030 H         1 <0>         0.0792
@<TRIPOS>BOND
     1    1    6 ar
     2    1    2 ar
     3    1   23 1
     4    2    3 ar
     5    2   24 1
     6    3    4 ar
     7    3    8 1
     8    4    5 ar
     9    4   25 1
    10    5    6 ar
    11    5   26 1
    12    6    7 1
    13    8    9 2
    14    8   10 2
    15    8   11 1
    16   11   12 1
    17   11   27 1
    18   12   13 1
    19   12   14 1
    20   12   20 1
    21   14   15 1
    22   14   28 1
    23   14   29 1
    24   15   16 1
    25   16   17 1
    26   16   30 1
    27   16   31 1
    28   17   18 2
    29   17   19 1
    30   20   21 2
    31   20   22 1
@<TRIPOS>MOLECULE
ZINC37584362
   33    33     0     0     0
SMALL
USER_CHARGES

@<TRIPOS>ATOM
      1 C1         -0.0225    1.8097    0.0120 C.3       1 <0>        -0.1269
      2 S1          0.0021   -0.0041    0.0020 S.3       1 <0>        -0.2412
      3 C2          0.8734   -0.4227   -1.5329 C.3       1 <0>        -0.0043
      4 C3          0.9644   -1.9210   -1.6663 C.2       1 <0>        -0.0003
      5 C4          0.0581   -2.7129   -2.2809 C.2       1 <0>        -0.1869
      6 C5          0.5256   -4.0324   -2.1785 C.2       1 <0>        -0.1476
      7 C6          1.7082   -3.9781   -1.4981 C.2       1 <0>        -0.0226
      8 O1          1.9597   -2.6865   -1.2003 O.3       1 <0>        -0.1496
      9 C7          2.5584   -5.1229   -1.1552 C.2       1 <0>         0.5851
     10 O2          2.2268   -6.2470   -1.4829 O.2       1 <0>        -0.5318
     11 N1          3.7071   -4.9300   -0.4771 N.am      1 <0>        -0.6647
     12 C8          4.5564   -6.0735   -0.1345 C.3       1 <0>         0.0714
     13 H1          3.9302   -6.9384    0.0843 H         1 <0>         0.0812
     14 C9          5.4010   -5.7313    1.0945 C.3       1 <0>        -0.0823
     15 C10         4.4848   -5.5311    2.3034 C.3       1 <0>        -0.1787
     16 C11         5.3168   -5.1941    3.5139 C.2       1 <0>         0.4918
     17 O3          6.5300   -5.1209    3.4186 O.co2     1 <0>        -0.6978
     18 O4          4.7766   -4.9947    4.5886 O.co2     1 <0>        -0.7188
     19 C12         5.4637   -6.3908   -1.2951 C.2       1 <0>         0.4987
     20 O5          5.8274   -5.5014   -2.0456 O.co2     1 <0>        -0.6973
     21 O6          5.8342   -7.5370   -1.4836 O.co2     1 <0>        -0.6983
     22 H2          1.0001    2.1870    0.0043 H         1 <0>         0.0779
     23 H3         -0.5497    2.1708   -0.8711 H         1 <0>         0.0746
     24 H4         -0.5327    2.1613    0.9088 H         1 <0>         0.1023
     25 H5          0.3274   -0.0147   -2.3835 H         1 <0>         0.1099
     26 H6          1.8772    0.0015   -1.5082 H         1 <0>         0.1022
     27 H7         -0.8545   -2.3910   -2.7603 H         1 <0>         0.1536
     28 H8          0.0432   -4.9188   -2.5630 H         1 <0>         0.1605
     29 H9          3.9715   -4.0340   -0.2158 H         1 <0>         0.3985
     30 H10         6.0958   -6.5466    1.2963 H         1 <0>         0.0747
     31 H11         5.9607   -4.8150    0.9071 H         1 <0>         0.0616
     32 H12         3.7900   -4.7158    2.1016 H         1 <0>         0.0519
     33 H13         3.9251   -6.4475    2.4908 H         1 <0>         0.0535
@<TRIPOS>BOND
     1    1    2 1
     2    1   22 1
     3    1   23 1
     4    1   24 1
     5    2    3 1
     6    3    4 1
     7    3   25 1
     8    3   26 1
     9    4    8 1
    10    4    5 2
    11    5    6 1
    12    5   27 1
    13    6    7 2
    14    6   28 1
    15    7    8 1
    16    7    9 1
    17    9   10 2
    18    9   11 am
    19   11   12 1
    20   11   29 1
    21   12   13 1
    22   12   14 1
    23   12   19 1
    24   14   15 1
    25   14   30 1
    26   14   31 1
    27   15   16 1
    28   15   32 1
    29   15   33 1
    30   16   17 2
    31   16   18 1
    32   19   20 2
    33   19   21 1
@<TRIPOS>MOLECULE
ZINC40535360
   34    33     0     0     0
SMALL
USER_CHARGES

@<TRIPOS>ATOM
      1 C1         -0.0187    1.5258    0.0104 C.3       1 <0>        -0.1578
      2 C2          0.0021   -0.0041    0.0020 C.3       1 <0>         0.1676
      3 H1          0.5293   -0.3651    0.8851 H         1 <0>         0.0964
      4 C3         -1.4333   -0.5336    0.0129 C.3       1 <0>         0.0543
      5 O1         -2.1582    0.0324   -1.0808 O.3       1 <0>        -0.3838
      6 C4         -3.5179   -0.3995   -1.1626 C.3       1 <0>         0.0323
      7 N1          0.6878   -0.4765   -1.2033 N.am      1 <0>        -0.7485
      8 C5          2.0310   -0.5870   -1.2149 C.2       1 <0>         0.7031
      9 O2          2.6736   -0.2945   -0.2251 O.2       1 <0>        -0.6034
     10 N2          2.6618   -1.0216   -2.3238 N.am      1 <0>        -0.7015
     11 C6          4.1218   -1.1417   -2.3364 C.3       1 <0>         0.0932
     12 H2          4.5573   -0.3425   -1.7367 H         1 <0>         0.0747
     13 C7          4.6300   -1.0341   -3.7756 C.3       1 <0>        -0.0819
     14 C8          4.3342    0.3658   -4.3176 C.3       1 <0>        -0.1753
     15 C9          4.8347    0.4717   -5.7351 C.2       1 <0>         0.4907
     16 O3          5.3776   -0.4838   -6.2629 O.co2     1 <0>        -0.6983
     17 O4          4.6967    1.5131   -6.3540 O.co2     1 <0>        -0.7208
     18 C10         4.5211   -2.4761   -1.7612 C.2       1 <0>         0.4971
     19 O5          3.7799   -3.4370   -1.8786 O.co2     1 <0>        -0.7015
     20 O6          5.5854   -2.5948   -1.1782 O.co2     1 <0>        -0.7048
     21 H3          1.0039    1.9031    0.0027 H         1 <0>         0.0626
     22 H4         -0.5459    1.8868   -0.8726 H         1 <0>         0.0620
     23 H5         -0.5289    1.8773    0.9072 H         1 <0>         0.0528
     24 H6         -1.4207   -1.6194   -0.0826 H         1 <0>         0.0568
     25 H7         -1.9156   -0.2570    0.9504 H         1 <0>         0.0590
     26 H8         -3.5486   -1.4824   -1.2825 H         1 <0>         0.0397
     27 H9         -4.0434   -0.1200   -0.2495 H         1 <0>         0.0363
     28 H10        -3.9988    0.0746   -2.0182 H         1 <0>         0.0829
     29 H11         0.1751   -0.7099   -1.9930 H         1 <0>         0.3945
     30 H12         2.1491   -1.2550   -3.1135 H         1 <0>         0.3879
     31 H13         5.7052   -1.2118   -3.7955 H         1 <0>         0.0712
     32 H14         4.1274   -1.7771   -4.3948 H         1 <0>         0.0592
     33 H15         3.2590    0.5435   -4.2976 H         1 <0>         0.0516
     34 H16         4.8368    1.1088   -3.6983 H         1 <0>         0.0518
@<TRIPOS>BOND
     1    1    2 1
     2    1   21 1
     3    1   22 1
     4    1   23 1
     5    2    3 1
     6    2    4 1
     7    2    7 1
     8    4    5 1
     9    4   24 1
    10    4   25 1
    11    5    6 1
    12    6   26 1
    13    6   27 1
    14    6   28 1
    15    7    8 am
    16    7   29 1
    17    8    9 2
    18    8   10 am
    19   10   11 1
    20   10   30 1
    21   11   12 1
    22   11   13 1
    23   11   18 1
    24   13   14 1
    25   13   31 1
    26   13   32 1
    27   14   15 1
    28   14   33 1
    29   14   34 1
    30   15   16 2
    31   15   17 1
    32   18   19 2
    33   18   20 1
@<TRIPOS>MOLECULE
ZINC49049314
   27    28     0     0     0
SMALL
USER_CHARGES

@<TRIPOS>ATOM
      1 C1         -0.0187    1.5258    0.0104 C.3       1 <0>        -0.0988
      2 C2          0.0021   -0.0041    0.0020 C.3       1 <0>        -0.6223
      3 H1          0.5123   -0.3556   -0.8948 H         1 <0>         0.1130
      4 C3         -1.4117   -0.5257    0.0127 C.2       1 <0>         0.5117
      5 O1         -1.7324   -1.4331   -0.7358 O.co2     1 <0>        -0.6901
      6 O2         -2.2349   -0.0402    0.7698 O.co2     1 <0>        -0.6759
      7 S1          0.8794   -0.6050    1.4716 S.o2      1 <0>         2.5589
      8 O3          0.2629   -0.1027    2.6492 O.2       1 <0>        -1.0176
      9 O4          1.1657   -1.9905    1.3383 O.2       1 <0>        -1.0345
     10 N1          2.3579    0.1390    1.4185 N.2       1 <0>        -1.0931
     11 C4          3.3010   -0.1067    2.4219 C.ar      1 <0>         0.3111
     12 C5          2.9988   -0.9800    3.4606 C.ar      1 <0>        -0.2375
     13 C6          3.9256   -1.2260    4.4538 C.ar      1 <0>        -0.0225
     14 C7          5.1626   -0.6014    4.4180 C.ar      1 <0>        -0.1009
     15 C8          5.4680    0.2747    3.3767 C.ar      1 <0>         0.1071
     16 C9          4.5395    0.5167    2.3770 C.ar      1 <0>        -0.1835
     17 N2          6.7625    0.7376    3.6118 N.am      1 <0>        -0.6497
     18 H2          7.2569    1.3634    3.0597 H         1 <0>         0.4315
     19 C10         7.2008    0.1569    4.7462 C.2       1 <0>         0.6319
     20 O5          8.2935    0.3352    5.2493 O.2       1 <0>        -0.5341
     21 O6          6.2448   -0.6481    5.2349 O.3       1 <0>        -0.2417
     22 H3          1.0039    1.9031    0.0027 H         1 <0>         0.0636
     23 H4         -0.5459    1.8868   -0.8726 H         1 <0>         0.0457
     24 H5         -0.5289    1.8773    0.9072 H         1 <0>         0.0648
     25 H6          2.0356   -1.4675    3.4908 H         1 <0>         0.1211
     26 H7          3.6866   -1.9048    5.2591 H         1 <0>         0.1191
     27 H8          4.7773    1.1920    1.5684 H         1 <0>         0.1227
@<TRIPOS>BOND
     1    1    2 1
     2    1   22 1
     3    1   23 1
     4    1   24 1
     5    2    3 1
     6    2    4 1
     7    2    7 1
     8    4    5 2
     9    4    6 1
    10    7    8 2
    11    7    9 2
    12    7   10 1
    13   10   11 1
    14   11   16 ar
    15   11   12 ar
    16   12   13 ar
    17   12   25 1
    18   13   14 ar
    19   13   26 1
    20   14   21 1
    21   14   15 ar
    22   15   16 ar
    23   15   17 1
    24   16   27 1
    25   17   18 1
    26   17   19 am
    27   19   20 2
    28   19   21 1
@<TRIPOS>MOLECULE
ZINC15446454
   35    35     0     0     0
SMALL
USER_CHARGES
(1R,3S)-1-(tert-butoxycarbonylamino)-3-hydroxy-cyclopentane-1-carboxylic acid
@<TRIPOS>ATOM
      1 C1          3.5635    2.6819    1.2318 C.3       1 <0>        -0.1799
      2 C2          3.5286    1.8056   -0.0219 C.3       1 <0>         0.1391
      3 C3          4.7545    0.8902   -0.0386 C.3       1 <0>        -0.1370
      4 C4          3.5396    2.6953   -1.2666 C.3       1 <0>        -0.1829
      5 O1          2.3218    0.9983   -0.0147 O.3       1 <0>        -0.3807
      6 C5          1.1468    1.6555   -0.0000 C.2       1 <0>         0.6450
      7 O2          1.1303    2.8705    0.0067 O.2       1 <0>        -0.5164
      8 N1         -0.0111    0.9658    0.0074 N.am      1 <0>        -0.6853
      9 C6         -1.2896    1.6810    0.0173 C.3       1 <0>         0.1525
     10 C7         -1.4247    2.5461    1.2950 C.3       1 <0>        -0.1154
     11 C8         -1.8616    1.5455    2.3849 C.3       1 <0>        -0.1526
     12 C9         -2.5276    0.3651    1.6564 C.3       1 <0>         0.0982
     13 H1         -3.5636    0.2636    1.9794 H         1 <0>         0.0552
     14 C10        -2.4722    0.6895    0.1492 C.3       1 <0>        -0.1067
     15 O3         -1.8113   -0.8422    1.9239 O.3       1 <0>        -0.5648
     16 C11        -1.4343    2.5293   -1.2198 C.2       1 <0>         0.4604
     17 O4         -2.5223    2.6849   -1.7218 O.co2     1 <0>        -0.6465
     18 H2          3.5556    2.0481    2.1185 H         1 <0>         0.0522
     19 H3          4.4695    3.2880    1.2264 H         1 <0>         0.0616
     20 H4          2.6902    3.3341    1.2436 H         1 <0>         0.0897
     21 H5          4.7296    0.2659   -0.9317 H         1 <0>         0.0627
     22 H6          5.6604    1.4962   -0.0440 H         1 <0>         0.0730
     23 H7          4.7466    0.2563    0.8481 H         1 <0>         0.0606
     24 H8          2.6663    3.3475   -1.2547 H         1 <0>         0.1022
     25 H9          4.4456    3.3014   -1.2720 H         1 <0>         0.0572
     26 H10         3.5148    2.0710   -2.1597 H         1 <0>         0.0542
     27 H11         0.0021   -0.0041    0.0020 H         1 <0>         0.3939
     28 H12        -0.4667    2.9973    1.5532 H         1 <0>         0.0809
     29 H13        -2.1830    3.3166    1.1556 H         1 <0>         0.0717
     30 H14        -0.9920    1.1976    2.9424 H         1 <0>         0.0669
     31 H15        -2.5747    2.0175    3.0608 H         1 <0>         0.0628
     32 H16        -3.4013    1.1586   -0.1744 H         1 <0>         0.1068
     33 H17        -2.2786   -0.2142   -0.4286 H         1 <0>         0.0747
     34 H18        -1.7915   -1.0889    2.8587 H         1 <0>         0.3694
     35 O5         -0.3545    3.1121   -1.7641 O.co2     1 <0>        -0.7228
@<TRIPOS>BOND
     1    1    2 1
     2    1   18 1
     3    1   19 1
     4    1   20 1
     5    2    3 1
     6    2    4 1
     7    2    5 1
     8    3   21 1
     9    3   22 1
    10    3   23 1
    11    4   24 1
    12    4   25 1
    13    4   26 1
    14    5    6 1
    15    6    7 2
    16    6    8 am
    17    8    9 1
    18    8   27 1
    19    9   14 1
    20    9   10 1
    21    9   16 1
    22   10   11 1
    23   10   28 1
    24   10   29 1
    25   11   12 1
    26   11   30 1
    27   11   31 1
    28   12   13 1
    29   12   14 1
    30   12   15 1
    31   14   32 1
    32   14   33 1
    33   15   34 1
    34   16   17 2
    35   16   35 1
@<TRIPOS>MOLECULE
ZINC35659773
   26    26     0     0     0
SMALL
USER_CHARGES

@<TRIPOS>ATOM
      1 C1          0.3463    1.4845   -0.0365 C.3       1 <0>        -0.0972
      2 C2          0.1754   -0.0127   -0.0202 C.ar      1 <0>         0.1931
      3 C3         -0.0990   -0.7094   -1.2026 C.ar      1 <0>        -0.1870
      4 C4         -0.2486   -2.1123   -1.1255 C.ar      1 <0>         0.1448
      5 N1         -0.1226   -2.7038    0.0600 N.ar      1 <0>        -0.5378
      6 C5          0.1361   -1.9998    1.1414 C.ar      1 <0>         0.3007
      7 N2          0.2877   -0.6885    1.1099 N.ar      1 <0>        -0.5294
      8 C6          0.2690   -2.7157    2.4608 C.3       1 <0>        -0.0727
      9 S1         -0.5955   -3.0596   -2.5701 S.3       1 <0>         0.0636
     10 C7         -0.6930   -4.7661   -1.9629 C.3       1 <0>        -0.1624
     11 C8         -0.9893   -5.6927   -3.1138 C.2       1 <0>         0.5362
     12 O1         -1.1216   -5.2458   -4.2335 O.2       1 <0>        -0.5195
     13 N3         -1.1072   -7.0180   -2.8989 N.am      1 <0>        -0.8520
     14 C9         -0.2281   -0.0032   -2.4854 C.2       1 <0>         0.5369
     15 O2          0.7663    0.2253   -3.1608 O.co2     1 <0>        -0.6695
     16 O3         -1.3300    0.3563   -2.8777 O.co2     1 <0>        -0.6688
     17 H1          1.3741    1.7299   -0.3039 H         1 <0>         0.0834
     18 H2         -0.3335    1.9199   -0.7688 H         1 <0>         0.0857
     19 H3          0.1221    1.8866    0.9515 H         1 <0>         0.0749
     20 H4          1.3087   -3.0052    2.6140 H         1 <0>         0.0775
     21 H5         -0.0462   -2.0533    3.2670 H         1 <0>         0.0801
     22 H6         -0.3591   -3.6065    2.4558 H         1 <0>         0.0771
     23 H7          0.2573   -5.0446   -1.5076 H         1 <0>         0.1179
     24 H8         -1.4877   -4.8428   -1.2208 H         1 <0>         0.1182
     25 H9         -1.0014   -7.3754   -2.0034 H         1 <0>         0.4022
     26 H10        -1.2979   -7.6144   -3.6397 H         1 <0>         0.4039
@<TRIPOS>BOND
     1    1    2 1
     2    1   17 1
     3    1   18 1
     4    1   19 1
     5    2    7 ar
     6    2    3 ar
     7    3    4 ar
     8    3   14 1
     9    4    5 ar
    10    4    9 1
    11    5    6 ar
    12    6    7 ar
    13    6    8 1
    14    8   20 1
    15    8   21 1
    16    8   22 1
    17    9   10 1
    18   10   11 1
    19   10   23 1
    20   10   24 1
    21   11   12 2
    22   11   13 am
    23   13   25 1
    24   13   26 1
    25   14   15 2
    26   14   16 1
@<TRIPOS>MOLECULE
ZINC01663959
   14    14     0     0     0
SMALL
USER_CHARGES

@<TRIPOS>ATOM
      1 C1         -0.0179    1.4696    0.0101 C.2       1 <0>        -0.0595
      2 C2          1.1714    2.1311    0.0023 C.2       1 <0>         0.1091
      3 N1          2.3493    1.4062   -0.0128 N.am      1 <0>        -0.6050
      4 H1          3.1978    1.8763   -0.0181 H         1 <0>         0.4461
      5 C3          2.3394    0.0632   -0.0199 C.2       1 <0>         0.6941
      6 O1          3.3979   -0.5353   -0.0333 O.2       1 <0>        -0.5553
      7 N2          1.1927   -0.6383   -0.0123 N.am      1 <0>        -0.6496
      8 H2          1.2216   -1.6078   -0.0172 H         1 <0>         0.4319
      9 C4          0.0021   -0.0041    0.0020 C.2       1 <0>         0.5433
     10 O2         -1.0364   -0.6372    0.0089 O.2       1 <0>        -0.5050
     11 C5          1.2040    3.6084    0.0095 C.2       1 <0>         0.5267
     12 O3          0.1590    4.2430    0.0224 O.co2     1 <0>        -0.6310
     13 O4          2.2761    4.1963    0.0024 O.co2     1 <0>        -0.6607
     14 F1         -1.1870    2.1465    0.0304 F         1 <0>        -0.0852
@<TRIPOS>BOND
     1    1    9 1
     2    1    2 2
     3    1   14 1
     4    2    3 1
     5    2   11 1
     6    3    4 1
     7    3    5 am
     8    5    6 2
     9    5    7 am
    10    7    8 1
    11    7    9 am
    12    9   10 2
    13   11   12 2
    14   11   13 1
@<TRIPOS>MOLECULE
ZINC48542943
   30    30     0     0     0
SMALL
USER_CHARGES

@<TRIPOS>ATOM
      1 C1         -0.0172    1.4841   -0.0137 C.3       1 <0>        -0.1596
      2 C2         -0.0151   -0.0458   -0.0087 C.3       1 <0>         0.1436
      3 C3          0.6863   -0.5590   -1.2679 C.3       1 <0>        -0.1586
      4 N1          0.6955   -0.5294    1.1776 N.pl3     1 <0>        -0.7327
      5 C4          0.0360   -0.6564    2.3613 C.2       1 <0>         0.5536
      6 O1         -1.2696   -0.3377    2.4420 O.3       1 <0>        -0.6458
      7 C5          0.7126   -1.1168    3.4907 C.2       1 <0>        -0.4535
      8 C6          2.1012   -1.4558    3.4049 C.1       1 <0>         0.3014
      9 N2          3.2028   -1.7247    3.3368 N.1       1 <0>        -0.5470
     10 C7          0.0039   -1.2533    4.7626 C.2       1 <0>         0.4694
     11 O2         -1.1511   -0.8782    4.8596 O.2       1 <0>        -0.4847
     12 C8          0.6880   -1.8456    5.9290 C.2       1 <0>        -0.2176
     13 C9          1.7813   -1.1769    6.5298 C.2       1 <0>         0.0212
     14 C10         2.3933   -1.7453    7.6031 C.2       1 <0>        -0.2568
     15 C11         1.9289   -2.9808    8.0918 C.2       1 <0>         0.5148
     16 O3          2.4743   -3.4947    9.0542 O.2       1 <0>        -0.5711
     17 N3          0.8875   -3.5990    7.5056 N.am      1 <0>        -0.5987
     18 H1          0.5793   -4.4499    7.8547 H         1 <0>         0.4126
     19 C12         0.2631   -3.0524    6.4451 C.2       1 <0>         0.1488
     20 H2          1.0099    1.8488   -0.0316 H         1 <0>         0.0472
     21 H3         -0.5459    1.8439   -0.8963 H         1 <0>         0.0529
     22 H4         -0.5169    1.8497    0.8834 H         1 <0>         0.0643
     23 H5         -1.0422   -0.4105    0.0092 H         1 <0>         0.0844
     24 H6          1.7134   -0.1943   -1.2858 H         1 <0>         0.0536
     25 H7          0.6878   -1.6490   -1.2643 H         1 <0>         0.0569
     26 H8          0.1576   -0.1992   -2.1505 H         1 <0>         0.0638
     27 H9          1.6362   -0.7590    1.1195 H         1 <0>         0.3877
     28 H10         2.1248   -0.2295    6.1415 H         1 <0>         0.1351
     29 H11         3.2295   -1.2525    8.0767 H         1 <0>         0.1461
     30 H12        -0.5735   -3.5642    5.9929 H         1 <0>         0.1686
@<TRIPOS>BOND
     1    1    2 1
     2    1   20 1
     3    1   21 1
     4    1   22 1
     5    2    3 1
     6    2    4 1
     7    2   23 1
     8    3   24 1
     9    3   25 1
    10    3   26 1
    11    4    5 1
    12    4   27 1
    13    5    6 1
    14    5    7 2
    15    7    8 1
    16    7   10 1
    17    8    9 3
    18   10   11 2
    19   10   12 1
    20   12   19 2
    21   12   13 1
    22   13   14 2
    23   13   28 1
    24   14   15 1
    25   14   29 1
    26   15   16 2
    27   15   17 am
    28   17   18 1
    29   17   19 1
    30   19   30 1
@<TRIPOS>MOLECULE
ZINC61823742
   39    39     0     0     0
SMALL
USER_CHARGES

@<TRIPOS>ATOM
      1 C1          3.3600   -2.6910   -3.8768 C.3       1 <0>        -0.1788
      2 C2          3.8691   -1.6446   -2.8834 C.3       1 <0>         0.1080
      3 H1          4.2867   -2.1456   -2.0101 H         1 <0>         0.0688
      4 C3          2.7092   -0.7461   -2.4498 C.3       1 <0>         0.0972
      5 H2          1.9788   -1.3370   -1.8971 H         1 <0>         0.0919
      6 C4          3.2320    0.3588   -1.5683 C.2       1 <0>         0.5001
      7 O1          3.2516    1.5072   -1.9772 O.co2     1 <0>        -0.6812
      8 O2          3.6353    0.1043   -0.4463 O.co2     1 <0>        -0.7049
      9 N1          2.0719   -0.1656   -3.6343 N.am      1 <0>        -0.7037
     10 C5          0.7836    0.2269   -3.5823 C.2       1 <0>         0.7127
     11 O3          0.1235    0.0155   -2.5834 O.2       1 <0>        -0.5988
     12 N2          0.2270    0.8539   -4.6376 N.am      1 <0>        -0.6322
     13 C6         -1.1382    1.3906   -4.5547 C.3       1 <0>         0.1326
     14 C7         -1.1121    2.8686   -4.9570 C.3       1 <0>        -0.1255
     15 C8         -0.4654    3.0061   -6.3372 C.3       1 <0>        -0.0641
     16 C9          0.9763    2.4956   -6.2801 C.3       1 <0>        -0.1257
     17 C10         0.9761    1.0188   -5.8907 C.3       1 <0>         0.1155
     18 C11        -1.2574    2.1836   -7.3555 C.3       1 <0>        -0.1439
     19 C12        -0.4689    4.4773   -6.7574 C.3       1 <0>        -0.1394
     20 O4          4.8806   -0.8497   -3.5056 O.3       1 <0>        -0.5517
     21 H3          2.5884   -3.2973   -3.4022 H         1 <0>         0.0633
     22 H4          2.9423   -2.1899   -4.7501 H         1 <0>         0.0584
     23 H5          4.1863   -3.3311   -4.1857 H         1 <0>         0.0524
     24 H6          2.5771   -0.0637   -4.4561 H         1 <0>         0.3900
     25 H7         -1.7895    0.8389   -5.2325 H         1 <0>         0.0588
     26 H8         -1.5065    1.2965   -3.5332 H         1 <0>         0.0898
     27 H9         -2.1311    3.2539   -4.9927 H         1 <0>         0.0699
     28 H10        -0.5341    3.4344   -4.2264 H         1 <0>         0.0695
     29 H11         1.4437    2.6155   -7.2574 H         1 <0>         0.0703
     30 H12         1.5346    3.0649   -5.5370 H         1 <0>         0.0729
     31 H13         2.0024    0.6794   -5.7504 H         1 <0>         0.0760
     32 H14         0.5010    0.4361   -6.6799 H         1 <0>         0.0628
     33 H15        -2.2839    2.5478   -7.3973 H         1 <0>         0.0525
     34 H16        -0.7969    2.2814   -8.3386 H         1 <0>         0.0521
     35 H17        -1.2556    1.1355   -7.0562 H         1 <0>         0.0599
     36 H18         0.0948    5.0637   -6.0319 H         1 <0>         0.0554
     37 H19        -0.0082    4.5755   -7.7404 H         1 <0>         0.0526
     38 H20        -1.4956    4.8407   -6.7994 H         1 <0>         0.0526
     39 H21         5.6483   -1.3549   -3.8064 H         1 <0>         0.3638
@<TRIPOS>BOND
     1    1    2 1
     2    1   21 1
     3    1   22 1
     4    1   23 1
     5    2    3 1
     6    2    4 1
     7    2   20 1
     8    4    5 1
     9    4    6 1
    10    4    9 1
    11    6    7 2
    12    6    8 1
    13    9   10 am
    14    9   24 1
    15   10   11 2
    16   10   12 am
    17   12   17 1
    18   12   13 1
    19   13   14 1
    20   13   25 1
    21   13   26 1
    22   14   15 1
    23   14   27 1
    24   14   28 1
    25   15   16 1
    26   15   18 1
    27   15   19 1
    28   16   17 1
    29   16   29 1
    30   16   30 1
    31   17   31 1
    32   17   32 1
    33   18   33 1
    34   18   34 1
    35   18   35 1
    36   19   36 1
    37   19   37 1
    38   19   38 1
    39   20   39 1
@<TRIPOS>MOLECULE
ZINC20082637
   19    18     0     0     0
SMALL
USER_CHARGES
(2S)-2-(difluoromethylsulfonylamino)-3-hydroxy-propanoic acid
@<TRIPOS>ATOM
      1 C1         -1.7939   -0.0020    2.6904 C.3       1 <0>         0.0963
      2 C2         -2.0359    1.2174    1.7986 C.3       1 <0>         0.1011
      3 H1         -2.5407    0.9298    0.8646 H         1 <0>         0.0883
      4 C3         -2.8738    2.2253    2.5424 C.2       1 <0>         0.4757
      5 O1         -2.4419    3.3344    2.7501 O.co2     1 <0>        -0.6206
      6 O2         -4.1000    1.8908    2.9741 O.co2     1 <0>        -0.7547
      7 N1         -0.7508    1.8216    1.4382 N.pl3     1 <0>        -1.0595
      8 S1         -0.0172    1.4168    0.0098 S.o2      1 <0>         2.6098
      9 O3          0.0021   -0.0041    0.0020 O.2       1 <0>        -0.9162
     10 O4          1.1953    2.1578    0.0022 O.2       1 <0>        -0.9224
     11 C4         -1.1345    2.0336   -1.2793 C.3       1 <0>        -0.2602
     12 F1         -1.2800    3.4186   -1.1466 F         1 <0>        -0.1763
     13 F2         -0.6010    1.7393   -2.5387 F         1 <0>        -0.1907
     14 O5         -1.2143    0.4194    3.9267 O.3       1 <0>        -0.5818
     15 H2         -2.7507   -0.5077    2.8876 H         1 <0>         0.0583
     16 H3         -1.1094   -0.6975    2.1828 H         1 <0>         0.0477
     17 H4         -0.3526    2.6603    2.0282 H         1 <0>         0.4593
     18 H5         -2.1782    1.7050   -1.3919 H         1 <0>         0.1520
     19 H6         -0.9680   -0.3231    4.7000 H         1 <0>         0.3937
@<TRIPOS>BOND
     1    1    2 1
     2    1   14 1
     3    1   15 1
     4    1   16 1
     5    2    3 1
     6    2    4 1
     7    2    7 1
     8    4    5 2
     9    4    6 1
    10    7    8 1
    11    7   17 1
    12    8    9 2
    13    8   10 2
    14    8   11 1
    15   11   12 1
    16   11   13 1
    17   11   18 1
    18   14   19 1
@<TRIPOS>MOLECULE
ZINC37432134
   32    33     0     0     0
SMALL
USER_CHARGES

@<TRIPOS>ATOM
      1 C1         -0.0496    1.4857    0.0196 C.3       1 <0>        -0.1814
      2 C2         -0.0105   -0.0436   -0.0020 C.3       1 <0>         0.1134
      3 H1         -1.0285   -0.4332   -0.0017 H         1 <0>         0.0494
      4 C3          0.7165   -0.5174   -1.2622 C.3       1 <0>         0.0759
      5 H2          1.7345   -0.1279   -1.2625 H         1 <0>         0.0887
      6 C4          0.7550   -2.0238   -1.2835 C.2       1 <0>         0.4946
      7 O1          0.0876   -2.6392   -2.0972 O.co2     1 <0>        -0.6948
      8 O2          1.4537   -2.6270   -0.4869 O.co2     1 <0>        -0.6779
      9 N1          0.0069   -0.0303   -2.4476 N.am      1 <0>        -0.6740
     10 C5          0.6691    0.1319   -3.6102 C.2       1 <0>         0.5799
     11 O3          1.8734   -0.0371   -3.6531 O.2       1 <0>        -0.5527
     12 C6         -0.0624    0.5124   -4.8247 C.2       1 <0>        -0.2899
     13 C7          0.5892    0.5636   -6.0581 C.2       1 <0>         0.2381
     14 N2         -0.1029    0.9196   -7.1285 N.2       1 <0>        -0.5048
     15 C8         -1.3856    1.2164   -7.0635 C.2       1 <0>         0.3878
     16 N3         -2.1122    1.1609   -5.9084 N.am      1 <0>        -0.5420
     17 C9         -1.4399    0.8271   -4.7647 C.2       1 <0>         0.5459
     18 O4         -2.0254    0.8054   -3.6965 O.2       1 <0>        -0.5167
     19 C10        -3.5509    1.4398   -5.9937 C.3       1 <0>         0.0741
     20 C11        -3.9083    2.2666   -7.2507 C.3       1 <0>        -0.1027
     21 S1         -2.5155    1.7466   -8.3377 S.3       1 <0>        -0.0162
     22 O5          0.6818   -0.5188    1.1543 O.3       1 <0>        -0.5335
     23 H3          0.9684    1.8753    0.0193 H         1 <0>         0.0612
     24 H4         -0.5776    1.8482   -0.8624 H         1 <0>         0.0623
     25 H5         -0.5675    1.8233    0.9174 H         1 <0>         0.0523
     26 H6         -0.9396    0.1756   -2.3958 H         1 <0>         0.4051
     27 H7          1.6378    0.3178   -6.1373 H         1 <0>         0.1970
     28 H8         -4.0938    0.4951   -6.0246 H         1 <0>         0.1095
     29 H9         -3.8578    1.9933   -5.1063 H         1 <0>         0.1207
     30 H10        -4.8714    1.9683   -7.6649 H         1 <0>         0.1472
     31 H11        -3.8783    3.3370   -7.0470 H         1 <0>         0.1216
     32 H12         0.2758   -0.2556    1.9916 H         1 <0>         0.3621
@<TRIPOS>BOND
     1    1    2 1
     2    1   23 1
     3    1   24 1
     4    1   25 1
     5    2    3 1
     6    2    4 1
     7    2   22 1
     8    4    5 1
     9    4    6 1
    10    4    9 1
    11    6    7 2
    12    6    8 1
    13    9   10 am
    14    9   26 1
    15   10   11 2
    16   10   12 1
    17   12   17 1
    18   12   13 2
    19   13   14 1
    20   13   27 1
    21   14   15 2
    22   15   21 1
    23   15   16 1
    24   16   17 am
    25   16   19 1
    26   17   18 2
    27   19   20 1
    28   19   28 1
    29   19   29 1
    30   20   21 1
    31   20   30 1
    32   20   31 1
    33   22   32 1
@<TRIPOS>MOLECULE
ZINC03628245
   20    20     0     0     0
SMALL
USER_CHARGES

@<TRIPOS>ATOM
      1 C1         -0.0219    1.5348    0.0032 C.3       1 <0>        -0.1372
      2 C2          1.4264    2.0354   -0.0004 C.3       1 <0>         0.1122
      3 N1          2.1302    1.4612   -1.1484 N.pl3     1 <0>        -0.6807
      4 C3          1.7818    0.2680   -1.6552 C.2       1 <0>         0.7098
      5 N2          2.4724   -0.2155   -2.7055 N.2       1 <0>        -0.5363
      6 N3          2.2271   -1.4022   -3.1477 N.pl3     1 <0>         0.2089
      7 O1          1.3894   -1.5715   -4.1497 O.2       1 <0>        -0.2453
      8 O2          2.8143   -2.4446   -2.5970 O.3       1 <0>        -0.2719
      9 N4          0.7716   -0.4621   -1.1565 N.pl3     1 <0>        -0.6764
     10 C4         -0.0087    0.0025   -0.0084 C.3       1 <0>         0.0551
     11 H1          0.4434   -0.3649    0.9129 H         1 <0>         0.0880
     12 C5         -1.4207   -0.5125   -0.1181 C.2       1 <0>         0.4948
     13 O3         -1.7947   -1.0520   -1.1455 O.co2     1 <0>        -0.6709
     14 O4         -2.1891   -0.3895    0.8205 O.co2     1 <0>        -0.6751
     15 H2         -0.5295    1.8897    0.9002 H         1 <0>         0.1111
     16 H3         -0.5387    1.9031   -0.8830 H         1 <0>         0.0806
     17 H4          1.4358    3.1229   -0.0741 H         1 <0>         0.0999
     18 H5          1.9206    1.7275    0.9210 H         1 <0>         0.0799
     19 H6          2.8629    1.9530   -1.5511 H         1 <0>         0.4268
     20 H7          0.5543   -1.3145   -1.5651 H         1 <0>         0.4266
@<TRIPOS>BOND
     1    1   10 1
     2    1    2 1
     3    1   15 1
     4    1   16 1
     5    2    3 1
     6    2   17 1
     7    2   18 1
     8    3    4 1
     9    3   19 1
    10    4    5 2
    11    4    9 1
    12    5    6 1
    13    6    7 2
    14    6    8 1
    15    9   10 1
    16    9   20 1
    17   10   11 1
    18   10   12 1
    19   12   13 2
    20   12   14 1
@<TRIPOS>MOLECULE
ZINC43510584
   31    32     0     0     0
SMALL
USER_CHARGES

@<TRIPOS>ATOM
      1 C1         -0.0178    1.4608    0.0101 C.3       1 <0>         0.0832
      2 N1          0.0021   -0.0041    0.0020 N.am      1 <0>        -0.3416
      3 C2         -1.1651   -0.6746    0.0041 C.2       1 <0>         0.4794
      4 O1         -2.2225   -0.0667    0.0121 O.2       1 <0>        -0.5360
      5 C3         -1.1571   -2.0873   -0.0037 C.2       1 <0>        -0.1989
      6 C4          0.0510   -2.7190   -0.0130 C.2       1 <0>        -0.0243
      7 C5          1.2226   -1.9241   -0.0144 C.2       1 <0>         0.0416
      8 N2          1.1322   -0.6131   -0.0120 N.2       1 <0>        -0.1929
      9 C6          2.5523   -2.5712   -0.0239 C.2       1 <0>         0.5900
     10 O2          2.6381   -3.7837   -0.0305 O.2       1 <0>        -0.4965
     11 N3          3.6690   -1.8166   -0.0252 N.am      1 <0>        -0.6896
     12 C7          4.9863   -2.4576   -0.0346 C.3       1 <0>         0.0940
     13 C8          6.0564   -1.3755   -0.1706 C.3       1 <0>        -0.1143
     14 C9          6.5053   -0.8820    1.2332 C.3       1 <0>        -0.0583
     15 S1          6.5202   -2.4932    2.1355 S.3       1 <0>        -0.3308
     16 C10         5.1310   -3.3076    1.2428 C.3       1 <0>        -0.0230
     17 C11         5.0700   -3.3682   -1.2325 C.2       1 <0>         0.5061
     18 O3          4.1265   -3.4542   -1.9999 O.co2     1 <0>        -0.6641
     19 O4          6.0812   -4.0187   -1.4342 O.co2     1 <0>        -0.6842
     20 H1          1.0048    1.8381    0.0023 H         1 <0>         0.1012
     21 H2         -0.5450    1.8219   -0.8730 H         1 <0>         0.0867
     22 H3         -0.5280    1.8123    0.9069 H         1 <0>         0.0865
     23 H4         -2.0793   -2.6493   -0.0019 H         1 <0>         0.1673
     24 H5          0.1127   -3.7972   -0.0188 H         1 <0>         0.1651
     25 H6          3.6005   -0.8490   -0.0199 H         1 <0>         0.3941
     26 H7          6.9165   -1.7836   -0.7015 H         1 <0>         0.1002
     27 H8          5.6508   -0.5361   -0.7353 H         1 <0>         0.0775
     28 H9          7.4997   -0.4367    1.1986 H         1 <0>         0.1043
     29 H10         5.7787   -0.1925    1.6631 H         1 <0>         0.0843
     30 H11         4.2174   -3.2691    1.8361 H         1 <0>         0.0850
     31 H12         5.3855   -4.3375    0.9928 H         1 <0>         0.1081
@<TRIPOS>BOND
     1    1    2 1
     2    1   20 1
     3    1   21 1
     4    1   22 1
     5    2    8 1
     6    2    3 am
     7    3    4 2
     8    3    5 1
     9    5    6 2
    10    5   23 1
    11    6    7 1
    12    6   24 1
    13    7    8 2
    14    7    9 1
    15    9   10 2
    16    9   11 am
    17   11   12 1
    18   11   25 1
    19   12   16 1
    20   12   13 1
    21   12   17 1
    22   13   14 1
    23   13   26 1
    24   13   27 1
    25   14   15 1
    26   14   28 1
    27   14   29 1
    28   15   16 1
    29   16   30 1
    30   16   31 1
    31   17   18 2
    32   17   19 1
@<TRIPOS>MOLECULE
ZINC52784088
   30    30     0     0     0
SMALL
USER_CHARGES

@<TRIPOS>ATOM
      1 C1         -0.0173    1.4248    0.0099 C.3       1 <0>         0.0320
      2 O1          0.0021   -0.0041    0.0020 O.3       1 <0>        -0.3919
      3 C2          0.6518   -0.5703   -1.1379 C.3       1 <0>         0.0634
      4 C3          0.6131   -2.0967   -1.0411 C.3       1 <0>        -0.1080
      5 C4          1.3087   -2.7029   -2.2615 C.3       1 <0>         0.0777
      6 H1          2.3175   -2.2981   -2.3431 H         1 <0>         0.0870
      7 C5          1.3794   -4.2004   -2.1071 C.2       1 <0>         0.4935
      8 O2          0.6994   -4.9194   -2.8192 O.co2     1 <0>        -0.6841
      9 O3          2.1167   -4.6928   -1.2702 O.co2     1 <0>        -0.6898
     10 N1          0.5503   -2.3719   -3.4704 N.am      1 <0>        -0.6849
     11 C6          1.1706   -2.3364   -4.6664 C.2       1 <0>         0.5069
     12 O4          2.3566   -2.5784   -4.7419 O.2       1 <0>        -0.5279
     13 C7          0.3905   -1.9958   -5.9100 C.3       1 <0>         0.1134
     14 H2         -0.3038   -1.1863   -5.6849 H         1 <0>         0.1143
     15 C8         -0.4131   -3.2431   -6.3629 C.3       1 <0>        -0.0632
     16 S1         -0.3161   -2.9965   -8.1869 S.3       1 <0>        -0.2171
     17 C9          1.1135   -1.9279   -8.2231 C.2       1 <0>         0.5728
     18 O5          1.7690   -1.6044   -9.1951 O.2       1 <0>        -0.4742
     19 N2          1.3111   -1.5588   -6.9438 N.am      1 <0>        -0.7105
     20 H3          1.0053    1.8021    0.0021 H         1 <0>         0.0386
     21 H4         -0.5445    1.7859   -0.8732 H         1 <0>         0.0377
     22 H5         -0.5275    1.7763    0.9067 H         1 <0>         0.0827
     23 H6          0.1385   -0.2506   -2.0447 H         1 <0>         0.0454
     24 H7          1.6883   -0.2344   -1.1694 H         1 <0>         0.0480
     25 H8          1.1264   -2.4164   -0.1342 H         1 <0>         0.0917
     26 H9         -0.4234   -2.4326   -1.0095 H         1 <0>         0.0726
     27 H10        -0.3982   -2.1783   -3.4101 H         1 <0>         0.3948
     28 H11         0.0776   -4.1673   -6.0578 H         1 <0>         0.1269
     29 H12        -1.4433   -3.2052   -6.0087 H         1 <0>         0.1395
     30 H13         2.0688   -0.9988   -6.7135 H         1 <0>         0.4127
@<TRIPOS>BOND
     1    1    2 1
     2    1   20 1
     3    1   21 1
     4    1   22 1
     5    2    3 1
     6    3    4 1
     7    3   23 1
     8    3   24 1
     9    4    5 1
    10    4   25 1
    11    4   26 1
    12    5    6 1
    13    5    7 1
    14    5   10 1
    15    7    8 2
    16    7    9 1
    17   10   11 am
    18   10   27 1
    19   11   12 2
    20   11   13 1
    21   13   14 1
    22   13   19 1
    23   13   15 1
    24   15   16 1
    25   15   28 1
    26   15   29 1
    27   16   17 1
    28   17   18 2
    29   17   19 am
    30   19   30 1
@<TRIPOS>MOLECULE
ZINC05375037
   36    37     0     0     0
SMALL
USER_CHARGES
2-[5-[(4-formylphenyl)methylene]-4-oxo-2-thioxo-thiazolidin-3-yl]pentanedioic acid
@<TRIPOS>ATOM
      1 C1         -3.6563    1.9800   -0.5344 C.ar      1 <0>        -0.1173
      2 C2         -2.4634    1.3193   -0.5970 C.ar      1 <0>        -0.0576
      3 C3         -1.2928    1.9433   -0.1474 C.ar      1 <0>        -0.1919
      4 C4         -1.3467    3.2432    0.3714 C.ar      1 <0>        -0.0621
      5 C5         -2.5385    3.9062    0.4292 C.ar      1 <0>        -0.1074
      6 C6         -3.7096    3.2823   -0.0204 C.ar      1 <0>        -0.0293
      7 C7         -4.9929    3.9935    0.0465 C.2       1 <0>         0.0147
      8 C8         -6.1568    3.3038   -0.0546 C.2       1 <0>        -0.1764
      9 C9         -7.5466    3.8063   -0.1601 C.2       1 <0>         0.5405
     10 O1         -7.7983    4.9963   -0.1667 O.2       1 <0>        -0.4674
     11 N1         -8.4985    2.8928   -0.2517 N.am      1 <0>        -0.4847
     12 C10        -8.2152    1.5747   -0.2366 C.2       1 <0>         0.2786
     13 S1         -9.3000    0.2540   -0.3357 S.2       1 <0>        -0.2558
     14 S2         -6.4362    1.5384   -0.0891 S.3       1 <0>         0.0103
     15 C11        -9.8943    3.3232   -0.3648 C.3       1 <0>         0.0656
     16 H1         -9.9402    4.4122   -0.3612 H         1 <0>         0.1107
     17 C12       -10.4875    2.7922   -1.6714 C.3       1 <0>        -0.1065
     18 C13        -9.7676    3.4370   -2.8575 C.3       1 <0>        -0.1531
     19 C14       -10.3519    2.9140   -4.1444 C.2       1 <0>         0.4652
     20 O2        -11.2516    2.1081   -4.1158 O.co2     1 <0>        -0.6309
     21 C15       -10.6825    2.7833    0.8007 C.2       1 <0>         0.4792
     22 O3        -10.1346    2.1083    1.6397 O.co2     1 <0>        -0.6237
     23 C16        -0.0083    1.2315   -0.2144 C.2       1 <0>         0.3857
     24 O4          1.0053    1.7716    0.1749 O.2       1 <0>        -0.4669
     25 H2         -4.5588    1.4990   -0.8815 H         1 <0>         0.1452
     26 H3         -2.4222    0.3156   -0.9935 H         1 <0>         0.1393
     27 H4         -0.4446    3.7224    0.7222 H         1 <0>         0.1349
     28 H5         -2.5793    4.9100    0.8255 H         1 <0>         0.1365
     29 H6         -5.0101    5.0655    0.1762 H         1 <0>         0.1612
     30 H7        -10.3614    1.7103   -1.7144 H         1 <0>         0.0942
     31 H8        -11.5489    3.0362   -1.7142 H         1 <0>         0.0934
     32 H9         -9.8937    4.5189   -2.8145 H         1 <0>         0.0598
     33 H10        -8.7062    3.1930   -2.8147 H         1 <0>         0.0437
     34 H11         0.0319    0.2258   -0.6061 H         1 <0>         0.1063
     35 O5         -9.8726    3.3434   -5.3224 O.co2     1 <0>        -0.7889
     36 O6        -11.9933    3.0524    0.9067 O.co2     1 <0>        -0.7452
@<TRIPOS>BOND
     1    1    6 ar
     2    1    2 ar
     3    1   25 1
     4    2    3 ar
     5    2   26 1
     6    3    4 ar
     7    3   23 1
     8    4    5 ar
     9    4   27 1
    10    5    6 ar
    11    5   28 1
    12    6    7 1
    13    7    8 2
    14    7   29 1
    15    8   14 1
    16    8    9 1
    17    9   10 2
    18    9   11 am
    19   11   12 1
    20   11   15 1
    21   12   13 2
    22   12   14 1
    23   15   16 1
    24   15   17 1
    25   15   21 1
    26   17   18 1
    27   17   30 1
    28   17   31 1
    29   18   19 1
    30   18   32 1
    31   18   33 1
    32   19   20 2
    33   19   35 1
    34   21   22 2
    35   21   36 1
    36   23   24 2
    37   23   34 1
@<TRIPOS>MOLECULE
ZINC20375806
   33    34     0     0     0
SMALL
USER_CHARGES
3-(4-hydroxy-4-oxo-butyl)-2,5-dimethyl-4-oxo-thieno[5,4-d]pyrimidine-6-carboxylic acid
@<TRIPOS>ATOM
      1 C1         -0.8528   -2.7389    4.5120 C.3       1 <0>        -0.1026
      2 C2          0.1968   -1.7379    4.9212 C.2       1 <0>        -0.0498
      3 C3          0.3643   -0.5608    4.1893 C.2       1 <0>        -0.2374
      4 C4          1.3738    0.3141    4.6526 C.2       1 <0>         0.0681
      5 N1          1.6343    1.4653    4.0467 N.2       1 <0>        -0.4936
      6 C5          0.9700    1.8484    2.9903 C.2       1 <0>         0.3942
      7 N2         -0.0203    1.0939    2.4537 N.am      1 <0>        -0.5230
      8 C6         -0.3701   -0.0904    2.9926 C.2       1 <0>         0.5558
      9 O1         -1.2648   -0.7585    2.5057 O.2       1 <0>        -0.5143
     10 C7         -0.7288    1.5792    1.2668 C.3       1 <0>         0.0812
     11 C8         -0.0127    1.0858    0.0080 C.3       1 <0>        -0.1137
     12 C9         -0.7527    1.5927   -1.2315 C.3       1 <0>        -0.1528
     13 C10        -0.0473    1.1067   -2.4714 C.2       1 <0>         0.4604
     14 O2          0.9454    0.4249   -2.3737 O.co2     1 <0>        -0.6378
     15 O3         -0.5219    1.4312   -3.6843 O.co2     1 <0>        -0.7800
     16 C11         1.3144    3.1676    2.3482 C.3       1 <0>        -0.1145
     17 S1          2.0315   -0.5343    6.0662 S.3       1 <0>         0.1655
     18 C12         0.9857   -1.9796    6.0087 C.2       1 <0>        -0.1699
     19 C13         0.9759   -3.1370    6.9059 C.2       1 <0>         0.5333
     20 O4          0.1873   -4.0440    6.7198 O.co2     1 <0>        -0.6051
     21 O5          1.8415   -3.1971    7.9388 O.co2     1 <0>        -0.7481
     22 H1         -1.3824   -2.3712    3.6208 H         1 <0>         0.0807
     23 H2         -1.5702   -2.8750    5.3347 H         1 <0>         0.0681
     24 H3         -0.3719   -3.7011    4.2819 H         1 <0>         0.0695
     25 H4         -1.7608    1.1985    1.2746 H         1 <0>         0.0996
     26 H5         -0.7437    2.6791    1.2728 H         1 <0>         0.0969
     27 H6          1.0193    1.4665    0.0002 H         1 <0>         0.0678
     28 H7          0.0022   -0.0141    0.0019 H         1 <0>         0.0718
     29 H8         -1.7847    1.2120   -1.2237 H         1 <0>         0.0678
     30 H9         -0.7676    2.6926   -1.2254 H         1 <0>         0.0659
     31 H10         0.6630    3.3327    1.4774 H         1 <0>         0.0951
     32 H11         2.3651    3.1538    2.0228 H         1 <0>         0.1027
     33 H12         1.1665    3.9792    3.0758 H         1 <0>         0.0982
@<TRIPOS>BOND
     1    1    2 1
     2    1   22 1
     3    1   23 1
     4    1   24 1
     5    2   18 2
     6    2    3 1
     7    3    8 1
     8    3    4 2
     9    4    5 1
    10    4   17 1
    11    5    6 2
    12    6    7 1
    13    6   16 1
    14    7    8 am
    15    7   10 1
    16    8    9 2
    17   10   11 1
    18   10   25 1
    19   10   26 1
    20   11   12 1
    21   11   27 1
    22   11   28 1
    23   12   13 1
    24   12   29 1
    25   12   30 1
    26   13   14 2
    27   13   15 1
    28   16   31 1
    29   16   32 1
    30   16   33 1
    31   17   18 1
    32   18   19 1
    33   19   20 2
    34   19   21 1
@<TRIPOS>MOLECULE
ZINC39100681
   18    18     0     0     0
SMALL
USER_CHARGES

@<TRIPOS>ATOM
      1 C1         -0.0187    1.5258    0.0104 C.3       1 <0>        -0.1424
      2 C2          0.0021   -0.0041    0.0020 C.3       1 <0>        -0.0141
      3 C3          0.7309   -0.5033    1.2229 C.2       1 <0>        -0.0297
      4 N1          0.2319   -0.7907    2.3983 N.2       1 <0>        -0.4664
      5 C4          0.9899   -1.2229    3.3875 C.2       1 <0>        -0.0001
      6 C5          2.3554   -1.3520    3.0956 C.2       1 <0>        -0.1537
      7 S1          2.3735   -0.8273    1.3888 S.3       1 <0>         0.0177
      8 C6          3.4619   -1.7986    3.9535 C.2       1 <0>         0.5468
      9 O1          3.2441   -2.1255    5.1124 O.co2     1 <0>        -0.5845
     10 O2          4.6011   -1.8436    3.5089 O.co2     1 <0>        -0.7134
     11 C7          0.4363   -1.5491    4.7166 C.2       1 <0>         0.5390
     12 O3         -0.7614   -1.4219    4.9282 O.co2     1 <0>        -0.7080
     13 O4          1.1755   -1.9465    5.6061 O.co2     1 <0>        -0.6108
     14 H1          1.0039    1.9031    0.0027 H         1 <0>         0.0540
     15 H2         -0.5459    1.8868   -0.8726 H         1 <0>         0.0537
     16 H3         -0.5289    1.8773    0.9072 H         1 <0>         0.0591
     17 H4         -1.0205   -0.3814    0.0098 H         1 <0>         0.0802
     18 H5          0.5123   -0.3556   -0.8948 H         1 <0>         0.0726
@<TRIPOS>BOND
     1    1    2 1
     2    1   14 1
     3    1   15 1
     4    1   16 1
     5    2    3 1
     6    2   17 1
     7    2   18 1
     8    3    7 1
     9    3    4 2
    10    4    5 1
    11    5    6 2
    12    5   11 1
    13    6    7 1
    14    6    8 1
    15    8    9 2
    16    8   10 1
    17   11   12 2
    18   11   13 1
@<TRIPOS>MOLECULE
ZINC05699864
   45    46     0     0     0
SMALL
USER_CHARGES

@<TRIPOS>ATOM
      1 C1         -0.0173    1.4248    0.0099 C.3       1 <0>         0.0473
      2 O1          0.0021   -0.0041    0.0020 O.3       1 <0>        -0.3810
      3 C2         -1.1917   -0.6329    0.0100 C.2       1 <0>         0.5048
      4 O2         -2.2209    0.0158    0.0233 O.2       1 <0>        -0.5417
      5 C3         -1.2466   -2.0474    0.0030 C.2       1 <0>        -0.4448
      6 C4         -2.4427   -2.6338    0.0058 C.2       1 <0>         0.3306
      7 C5         -2.6413   -4.1209   -0.0048 C.3       1 <0>        -0.0484
      8 C6         -3.0207   -4.5788   -1.4166 C.3       1 <0>         0.0081
      9 C7         -1.8449   -4.4136   -2.3366 C.2       1 <0>        -0.4449
     10 C8         -0.5925   -4.2715   -1.9053 C.2       1 <0>         0.3304
     11 C9         -0.2079   -4.2545   -0.4552 C.3       1 <0>        -0.0488
     12 C10         0.0468   -2.8110   -0.0135 C.3       1 <0>         0.0081
     13 C11        -1.3433   -4.8297    0.3989 C.3       1 <0>        -0.0585
     14 C12         1.0421   -5.0723   -0.2560 C.2       1 <0>         0.4998
     15 O3          1.0258   -6.0314    0.4787 O.2       1 <0>        -0.5360
     16 O4          2.1735   -4.7352   -0.8947 O.3       1 <0>        -0.3148
     17 C13         3.3203   -5.5548   -0.6593 C.3       1 <0>         0.0341
     18 O5          0.3846   -4.1357   -2.8238 O.3       1 <0>        -0.6299
     19 C14        -2.0794   -4.4092   -3.7326 C.2       1 <0>         0.5048
     20 O6         -1.1489   -4.2775   -4.5053 O.2       1 <0>        -0.5417
     21 O7         -3.3348   -4.5512   -4.2062 O.3       1 <0>        -0.3811
     22 C15        -3.4980   -4.5375   -5.6258 C.3       1 <0>         0.0473
     23 C16        -3.7379   -4.4896    0.9609 C.2       1 <0>         0.4996
     24 O8         -3.5036   -5.2287    1.8876 O.2       1 <0>        -0.5358
     25 O9         -4.9750   -3.9968    0.7915 O.3       1 <0>        -0.3149
     26 C17        -5.9653   -4.3882    1.7445 C.3       1 <0>         0.0340
     27 O10        -3.5367   -1.8465    0.0195 O.3       1 <0>        -0.6299
     28 H1          1.0053    1.8021    0.0021 H         1 <0>         0.0728
     29 H2         -0.5445    1.7859   -0.8732 H         1 <0>         0.0402
     30 H3         -0.5275    1.7763    0.9067 H         1 <0>         0.0377
     31 H4         -3.3160   -5.6277   -1.3904 H         1 <0>         0.0312
     32 H5         -3.8536   -3.9775   -1.7812 H         1 <0>         0.0637
     33 H6          0.7402   -2.3347   -0.7066 H         1 <0>         0.0640
     34 H7          0.4794   -2.8130    0.9870 H         1 <0>         0.0307
     35 H8         -1.1381   -4.6508    1.4544 H         1 <0>         0.0696
     36 H9         -1.4356   -5.9004    0.2167 H         1 <0>         0.0696
     37 H10         3.5671   -5.5380    0.4023 H         1 <0>         0.0473
     38 H11         3.1045   -6.5783   -0.9660 H         1 <0>         0.0493
     39 H12         4.1638   -5.1733   -1.2345 H         1 <0>         0.0899
     40 H13        -4.5528   -4.6604   -5.8715 H         1 <0>         0.0728
     41 H14        -3.1406   -3.5877   -6.0235 H         1 <0>         0.0402
     42 H15        -2.9251   -5.3541   -6.0653 H         1 <0>         0.0377
     43 H16        -6.0770   -5.4724    1.7280 H         1 <0>         0.0473
     44 H17        -5.6570   -4.0699    2.7404 H         1 <0>         0.0493
     45 H18        -6.9171   -3.9210    1.4921 H         1 <0>         0.0899
@<TRIPOS>BOND
     1    1    2 1
     2    1   28 1
     3    1   29 1
     4    1   30 1
     5    2    3 1
     6    3    4 2
     7    3    5 1
     8    5   12 1
     9    5    6 2
    10    6    7 1
    11    6   27 1
    12    7   13 1
    13    7    8 1
    14    7   23 1
    15    8    9 1
    16    8   31 1
    17    8   32 1
    18    9   10 2
    19    9   19 1
    20   10   11 1
    21   10   18 1
    22   11   12 1
    23   11   13 1
    24   11   14 1
    25   12   33 1
    26   12   34 1
    27   13   35 1
    28   13   36 1
    29   14   15 2
    30   14   16 1
    31   16   17 1
    32   17   37 1
    33   17   38 1
    34   17   39 1
    35   19   20 2
    36   19   21 1
    37   21   22 1
    38   22   40 1
    39   22   41 1
    40   22   42 1
    41   23   24 2
    42   23   25 1
    43   25   26 1
    44   26   43 1
    45   26   44 1
    46   26   45 1
@<TRIPOS>MOLECULE
ZINC61685398
   31    32     0     0     0
SMALL
USER_CHARGES

@<TRIPOS>ATOM
      1 C1         -0.0187    1.5258    0.0104 C.3       1 <0>        -0.1560
      2 C2          0.0021   -0.0041    0.0020 C.3       1 <0>         0.0992
      3 C3          0.7421   -0.5109    1.2415 C.3       1 <0>        -0.1562
      4 N1         -1.3723   -0.5112    0.0124 N.pl3     1 <0>        -0.4004
      5 C4         -2.2918   -0.2694    0.9686 C.2       1 <0>         0.0796
      6 C5         -3.4465   -0.9001    0.6412 C.2       1 <0>        -0.6918
      7 C6         -3.2433   -1.5650   -0.5701 C.2       1 <0>        -0.0815
      8 C7         -1.9412   -1.3093   -0.9564 C.2       1 <0>        -0.0550
      9 C8         -1.2867   -1.7982   -2.1682 C.2       1 <0>         0.5567
     10 O1         -0.1204   -1.5016   -2.3967 O.co2     1 <0>        -0.7005
     11 O2         -1.9044   -2.5047   -2.9554 O.co2     1 <0>        -0.6773
     12 S1         -4.9387   -0.8844    1.5781 S.o2      1 <0>         2.6380
     13 O3         -5.6595   -2.0534    1.2135 O.2       1 <0>        -1.0460
     14 O4         -4.5716   -0.6039    2.9219 O.2       1 <0>        -1.0569
     15 N2         -5.8332    0.4064    1.0525 N.2       1 <0>        -1.0829
     16 C9         -7.0899    0.6722    1.6272 C.2       1 <0>         0.1243
     17 C10        -7.7041   -0.0703    2.6573 C.2       1 <0>         0.0019
     18 N3         -8.8557    0.4796    2.9209 N.2       1 <0>        -0.3468
     19 O5         -9.0151    1.5958    2.0643 O.3       1 <0>        -0.1020
     20 C11        -7.9169    1.6865    1.2933 C.2       1 <0>        -0.1248
     21 H1          1.0039    1.9031    0.0027 H         1 <0>         0.0658
     22 H2         -0.5459    1.8868   -0.8726 H         1 <0>         0.0623
     23 H3         -0.5289    1.8773    0.9072 H         1 <0>         0.0558
     24 H4          0.5123   -0.3556   -0.8948 H         1 <0>         0.1437
     25 H5          0.2319   -0.1594    2.1383 H         1 <0>         0.0554
     26 H6          0.7568   -1.6008    1.2356 H         1 <0>         0.0602
     27 H7          1.7647   -0.1336    1.2338 H         1 <0>         0.0665
     28 H8         -2.1340    0.3302    1.8530 H         1 <0>         0.1602
     29 H9         -3.9671   -2.1619   -1.1050 H         1 <0>         0.1419
     30 H10        -7.2919   -0.9426    3.1426 H         1 <0>         0.1731
     31 H11        -7.7305    2.4361    0.5385 H         1 <0>         0.1935
@<TRIPOS>BOND
     1    1    2 1
     2    1   21 1
     3    1   22 1
     4    1   23 1
     5    2    3 1
     6    2    4 1
     7    2   24 1
     8    3   25 1
     9    3   26 1
    10    3   27 1
    11    4    8 1
    12    4    5 1
    13    5    6 2
    14    5   28 1
    15    6    7 1
    16    6   12 1
    17    7    8 2
    18    7   29 1
    19    8    9 1
    20    9   10 2
    21    9   11 1
    22   12   13 2
    23   12   14 2
    24   12   15 1
    25   15   16 1
    26   16   20 2
    27   16   17 1
    28   17   18 2
    29   17   30 1
    30   18   19 1
    31   19   20 1
    32   20   31 1
@<TRIPOS>MOLECULE
ZINC01909699
   38    39     0     0     0
SMALL
USER_CHARGES
4-[5-[3-(3-carboxypropyl)-4-oxo-2-thioxo-thiazolidin-5-ylidene]-4-oxo-2-thioxo-thiazolidin-3-yl]butanoic acid
@<TRIPOS>ATOM
      1 C1          2.8272    0.9963   -1.4608 C.3       1 <0>        -0.1100
      2 C2          4.1751    0.2726   -1.4765 C.3       1 <0>        -0.1513
      3 C3          4.6047    0.0417   -2.9024 C.2       1 <0>         0.4621
      4 O1          3.9046    0.4174   -3.8127 O.co2     1 <0>        -0.6395
      5 C4          2.3910    1.2307   -0.0132 C.3       1 <0>         0.0797
      6 N1          1.1003    1.9236    0.0019 N.am      1 <0>        -0.5148
      7 C5         -0.0144    1.2120    0.0087 C.2       1 <0>         0.5396
      8 O2          0.0021   -0.0041    0.0020 O.2       1 <0>        -0.4178
      9 C6         -1.2852    1.9754    0.0186 C.2       1 <0>        -0.0860
     10 C7         -2.5835    1.5184    0.0221 C.2       1 <0>        -0.0859
     11 C8         -3.8543    2.2817    0.0381 C.2       1 <0>         0.5396
     12 O3         -3.8708    3.4978    0.0510 O.2       1 <0>        -0.4178
     13 N2         -4.9691    1.5702    0.0338 N.am      1 <0>        -0.5148
     14 C9         -4.9458    0.2222    0.0268 C.2       1 <0>         0.2603
     15 S1         -6.2701   -0.8629    0.0270 S.2       1 <0>        -0.2858
     16 S2         -3.2016   -0.1590    0.0165 S.3       1 <0>         0.1365
     17 C10        -6.2599    2.2631    0.0440 C.3       1 <0>         0.0799
     18 C11        -6.7020    2.4964    1.4900 C.3       1 <0>        -0.1101
     19 C12        -8.0500    3.2201    1.5007 C.3       1 <0>        -0.1513
     20 C13        -8.4856    3.4499    2.9250 C.2       1 <0>         0.4621
     21 O4         -7.7892    3.0735    3.8378 O.co2     1 <0>        -0.6395
     22 S3         -0.6672    3.6528    0.0271 S.3       1 <0>         0.1364
     23 C14         1.0770    3.2716    0.0089 C.2       1 <0>         0.2603
     24 S4          2.4012    4.3567    0.0025 S.2       1 <0>        -0.2857
     25 H1          2.0814    0.3864   -1.9707 H         1 <0>         0.0684
     26 H2          2.9233    1.9546   -1.9710 H         1 <0>         0.0743
     27 H3          4.9209    0.8825   -0.9666 H         1 <0>         0.0711
     28 H4          4.0790   -0.6858   -0.9663 H         1 <0>         0.0679
     29 H5          3.1368    1.8405    0.4968 H         1 <0>         0.1145
     30 H6          2.2948    0.2723    0.4971 H         1 <0>         0.1058
     31 H7         -6.1616    3.2219   -0.4651 H         1 <0>         0.1057
     32 H8         -7.0035    1.6537   -0.4695 H         1 <0>         0.1146
     33 H9         -6.8003    1.5376    1.9991 H         1 <0>         0.0743
     34 H10        -5.9584    3.1059    2.0035 H         1 <0>         0.0684
     35 H11        -7.9517    4.1789    0.9916 H         1 <0>         0.0679
     36 H12        -8.7937    2.6107    0.9872 H         1 <0>         0.0710
     37 O5          5.7651   -0.5813   -3.1612 O.co2     1 <0>        -0.7751
     38 O6         -9.6470    4.0727    3.1795 O.co2     1 <0>        -0.7750
@<TRIPOS>BOND
     1    1    2 1
     2    1    5 1
     3    1   25 1
     4    1   26 1
     5    2    3 1
     6    2   27 1
     7    2   28 1
     8    3    4 2
     9    3   37 1
    10    5    6 1
    11    5   29 1
    12    5   30 1
    13    6   23 1
    14    6    7 am
    15    7    8 2
    16    7    9 1
    17    9   10 2
    18    9   22 1
    19   10   16 1
    20   10   11 1
    21   11   12 2
    22   11   13 am
    23   13   14 1
    24   13   17 1
    25   14   15 2
    26   14   16 1
    27   17   18 1
    28   17   31 1
    29   17   32 1
    30   18   19 1
    31   18   33 1
    32   18   34 1
    33   19   20 1
    34   19   35 1
    35   19   36 1
    36   20   21 2
    37   20   38 1
    38   22   23 1
    39   23   24 2
@<TRIPOS>MOLECULE
ZINC15768833
   39    41     0     0     0
SMALL
USER_CHARGES
2,6-bis(4-sulfophenyl)pyrylium-4-carboxylic acid
@<TRIPOS>ATOM
      1 C1          1.1843    2.0982    0.0020 C.ar      1 <0>        -0.0898
      2 C2          2.3839    1.4164   -0.0136 C.ar      1 <0>        -0.0328
      3 C3          2.3964    0.0331   -0.0206 C.ar      1 <0>        -0.6197
      4 C4          1.2079   -0.6749   -0.0131 C.ar      1 <0>        -0.0340
      5 C5          0.0021   -0.0041    0.0020 C.ar      1 <0>        -0.0984
      6 C6         -0.0168    1.3901    0.0097 C.ar      1 <0>        -0.0797
      7 C7         -1.3086    2.1165    0.0197 C.2       1 <0>         0.1897
      8 C8         -1.3016    3.5115    0.0330 C.2       1 <0>        -0.1368
      9 C9         -2.5435    4.1662    0.0367 C.2       1 <0>         0.0284
     10 C10        -3.6723    3.3317    0.0375 C.2       1 <0>        -0.1466
     11 C11        -3.4552    1.9538    0.0290 C.2       1 <0>         0.1914
     12 O1         -2.3400    1.4825    0.0212 O.3       1 <0>        -0.0422
     13 C12        -4.6227    1.0408    0.0301 C.ar      1 <0>        -0.0795
     14 C13        -5.9168    1.5597    0.0449 C.ar      1 <0>        -0.0908
     15 C14        -7.0000    0.7047    0.0414 C.ar      1 <0>        -0.0328
     16 C15        -6.8038   -0.6647    0.0330 C.ar      1 <0>        -0.6198
     17 C16        -5.5221   -1.1853    0.0236 C.ar      1 <0>        -0.0335
     18 C17        -4.4312   -0.3403    0.0221 C.ar      1 <0>        -0.0981
     19 S1         -8.1918   -1.7500    0.0349 S.o2      1 <0>         2.6908
     20 O2         -9.2817   -1.0164   -0.5065 O.2       1 <0>        -1.0474
     21 O3         -7.7475   -2.9785   -0.5245 O.2       1 <0>        -1.0468
     22 C18        -2.6555    5.6447    0.0458 C.2       1 <0>         0.4861
     23 O4         -3.7498    6.1704    0.0543 O.co2     1 <0>        -0.5836
     24 S2          3.9321   -0.8305   -0.0399 S.o2      1 <0>         2.6911
     25 O5          4.9017    0.0529    0.5064 O.2       1 <0>        -1.0474
     26 O6          3.6809   -2.1180    0.5064 O.2       1 <0>        -1.0471
     27 H1          1.1758    3.1782    0.0075 H         1 <0>         0.1439
     28 H2          3.3149    1.9638   -0.0195 H         1 <0>         0.1532
     29 H3          1.2238   -1.7548   -0.0194 H         1 <0>         0.1511
     30 H4         -0.9251   -0.5578    0.0075 H         1 <0>         0.1368
     31 H5         -0.3755    4.0670    0.0364 H         1 <0>         0.1990
     32 H6         -4.6717    3.7413    0.0441 H         1 <0>         0.1961
     33 H7         -6.0712    2.6285    0.0552 H         1 <0>         0.1425
     34 H8         -8.0029    1.1054    0.0487 H         1 <0>         0.1530
     35 H9         -5.3751   -2.2552    0.0178 H         1 <0>         0.1513
     36 H10        -3.4311   -0.7478    0.0152 H         1 <0>         0.1371
     37 O7         -8.5386   -2.0345    1.4893 O.3       1 <0>        -1.0664
     38 O8         -1.5437    6.4041    0.0446 O.co2     1 <0>        -0.7015
     39 O9          4.3104   -1.0433   -1.4987 O.3       1 <0>        -1.0666
@<TRIPOS>BOND
     1    1    6 ar
     2    1    2 ar
     3    1   27 1
     4    2    3 ar
     5    2   28 1
     6    3    4 ar
     7    3   24 1
     8    4    5 ar
     9    4   29 1
    10    5    6 ar
    11    5   30 1
    12    6    7 1
    13    7   12 2
    14    7    8 1
    15    8    9 2
    16    8   31 1
    17    9   10 1
    18    9   22 1
    19   10   11 2
    20   10   32 1
    21   11   12 1
    22   11   13 1
    23   13   18 ar
    24   13   14 ar
    25   14   15 ar
    26   14   33 1
    27   15   16 ar
    28   15   34 1
    29   16   17 ar
    30   16   19 1
    31   17   18 ar
    32   17   35 1
    33   18   36 1
    34   19   20 2
    35   19   21 2
    36   19   37 1
    37   22   23 2
    38   22   38 1
    39   24   25 2
    40   24   26 2
    41   24   39 1
@<TRIPOS>MOLECULE
ZINC25559847
   39    40     0     0     0
SMALL
USER_CHARGES
2-[(5E)-2-oxo-5-[(2E)-2-[3-(3-sulfopropyl)thiazolidin-2-ylidene]ethylidene]-4-thioxo-thiazolidin-3-yl]acetic acid
@<TRIPOS>ATOM
      1 C1         -0.9209    8.3292   -5.2487 C.3       1 <0>         0.0923
      2 C2          0.2462    9.1540   -4.6723 C.3       1 <0>        -0.1148
      3 S1          1.2088    7.8557   -3.8085 S.3       1 <0>        -0.0842
      4 C3          0.1946    6.4409   -4.1850 C.2       1 <0>         0.2455
      5 C4          0.4098    5.1330   -3.7987 C.2       1 <0>        -0.2524
      6 C5         -0.5707    4.1675   -4.0282 C.2       1 <0>         0.0777
      7 C6         -0.3503    2.8535   -3.6508 C.2       1 <0>        -0.2370
      8 C7          0.8415    2.2319   -3.2149 C.2       1 <0>         0.3596
      9 S2          2.3084    3.1050   -3.0844 S.2       1 <0>        -0.5451
     10 N1          0.7744    0.9457   -2.9124 N.am      1 <0>        -0.4934
     11 C8         -0.3881    0.2702   -3.0258 C.2       1 <0>         0.5137
     12 O1         -0.6070   -0.9041   -2.7925 O.2       1 <0>        -0.4361
     13 S3         -1.4955    1.4844   -3.5829 S.3       1 <0>         0.0078
     14 C9          1.9772    0.2455   -2.4550 C.3       1 <0>         0.0318
     15 C10         2.0720    0.3381   -0.9538 C.2       1 <0>         0.4707
     16 O2          1.2221    0.9284   -0.3301 O.co2     1 <0>        -0.6180
     17 O3          3.1007   -0.2351   -0.3097 O.co2     1 <0>        -0.7626
     18 N2         -0.8452    6.9222   -4.9318 N.pl3     1 <0>        -0.6037
     19 C11        -1.8851    6.0083   -5.4112 C.3       1 <0>         0.1027
     20 C12        -2.7963    5.6166   -4.2462 C.3       1 <0>        -0.1550
     21 C13        -3.8272    4.5933   -4.7269 C.3       1 <0>        -0.6843
     22 S4         -4.9076    4.1289   -3.3457 S.o2      1 <0>         2.6291
     23 O4         -4.1722    3.3995   -2.3729 O.2       1 <0>        -1.0239
     24 O5         -5.7165    5.2331   -2.9643 O.2       1 <0>        -1.0609
     25 O6         -5.8820    3.1185   -3.9339 O.3       1 <0>        -1.0834
     26 H1         -0.9083    8.4603   -6.3408 H         1 <0>         0.0864
     27 H2         -1.8525    8.7475   -4.8400 H         1 <0>         0.0887
     28 H3          0.7979    9.6330   -5.4946 H         1 <0>         0.1165
     29 H4         -0.1494    9.9270   -3.9970 H         1 <0>         0.1184
     30 H5          1.3544    4.8522   -3.3099 H         1 <0>         0.2132
     31 H6         -1.5189    4.4500   -4.5090 H         1 <0>         0.1826
     32 H7          1.9223   -0.8115   -2.7545 H         1 <0>         0.0966
     33 H8          2.8660    0.7092   -2.9079 H         1 <0>         0.1225
     34 H9         -2.4802    6.5065   -6.1907 H         1 <0>         0.0957
     35 H10        -1.4157    5.1056   -5.8292 H         1 <0>         0.0962
     36 H11        -2.1915    5.1767   -3.4395 H         1 <0>         0.0975
     37 H12        -3.3150    6.5106   -3.8697 H         1 <0>         0.0853
     38 H13        -4.4319    5.0333   -5.5336 H         1 <0>         0.1124
     39 H14        -3.3085    3.6993   -5.1033 H         1 <0>         0.1120
@<TRIPOS>BOND
     1    1   18 1
     2    1    2 1
     3    1   26 1
     4    1   27 1
     5    2    3 1
     6    2   28 1
     7    2   29 1
     8    3    4 1
     9    4    5 2
    10    4   18 1
    11    5    6 1
    12    5   30 1
    13    6    7 2
    14    6   31 1
    15    7   13 1
    16    7    8 1
    17    8    9 2
    18    8   10 1
    19   10   11 am
    20   10   14 1
    21   11   12 2
    22   11   13 1
    23   14   15 1
    24   14   32 1
    25   14   33 1
    26   15   16 2
    27   15   17 1
    28   18   19 1
    29   19   20 1
    30   19   34 1
    31   19   35 1
    32   20   21 1
    33   20   36 1
    34   20   37 1
    35   21   22 1
    36   21   38 1
    37   21   39 1
    38   22   23 2
    39   22   24 2
    40   22   25 1
@<TRIPOS>MOLECULE
ZINC13450115
   49    51     0     0     0
SMALL
USER_CHARGES

@<TRIPOS>ATOM
      1 C1          1.9736    1.0651    0.5373 C.3       1 <0>        -0.0913
      2 C2          1.6827   -0.4096    0.4295 C.ar      1 <0>         0.1576
      3 N1          1.4818   -0.9676   -0.7547 N.ar      1 <0>        -0.5833
      4 C3          1.2258   -2.2635   -0.8614 C.ar      1 <0>         0.3027
      5 N2          1.1607   -3.0490    0.2043 N.ar      1 <0>        -0.6248
      6 C4          1.3519   -2.5551    1.4212 C.ar      1 <0>         0.4453
      7 O1          1.2846   -3.3613    2.5083 O.3       1 <0>        -0.6930
      8 C5          1.6285   -1.1958    1.5650 C.ar      1 <0>        -0.2695
      9 C6          1.8581   -0.5965    2.9286 C.3       1 <0>        -0.0162
     10 C7          0.5237   -0.1240    3.5092 C.3       1 <0>        -0.1653
     11 C8          0.7533    0.4753    4.8728 C.2       1 <0>         0.4943
     12 O2          1.8798    0.5203    5.3371 O.co2     1 <0>        -0.7030
     13 O3         -0.1874    0.9151    5.5116 O.co2     1 <0>        -0.7218
     14 S1          0.9650   -2.9593   -2.4591 S.3       1 <0>         0.0074
     15 C9          0.6561   -4.7158   -2.1277 C.3       1 <0>        -0.1374
     16 C10         0.4142   -5.4374   -3.4284 C.2       1 <0>         0.5447
     17 O4          0.4296   -4.8237   -4.4743 O.2       1 <0>        -0.5110
     18 N3          0.1806   -6.7648   -3.4293 N.am      1 <0>        -0.5764
     19 C11         0.0550   -7.4856   -4.6985 C.3       1 <0>         0.1486
     20 H1         -0.1071   -8.5448   -4.4985 H         1 <0>         0.1125
     21 C12        -1.1407   -6.9261   -5.4871 C.3       1 <0>        -0.1527
     22 C13        -1.0638   -7.4778   -6.9394 C.3       1 <0>        -0.5698
     23 S2          0.7470   -7.3478   -7.2540 S.o2      1 <0>         2.3745
     24 O5          1.0212   -6.0950   -7.8660 O.2       1 <0>        -0.9233
     25 O6          1.1949   -8.5436   -7.8775 O.2       1 <0>        -0.9462
     26 C14         1.3553   -7.3108   -5.5196 C.3       1 <0>        -0.5964
     27 C15         0.0525   -7.4869   -2.1610 C.3       1 <0>         0.0679
     28 C16         0.1203   -9.0146   -2.2080 C.3       1 <0>        -0.1891
     29 C17        -1.2152   -8.3159   -1.9451 C.3       1 <0>        -0.1897
     30 H2          3.0496    1.2285    0.4783 H         1 <0>         0.0637
     31 H3          1.4806    1.5932   -0.2789 H         1 <0>         0.0613
     32 H4          1.6008    1.4403    1.4904 H         1 <0>         0.0749
     33 H5          2.2951   -1.3476    3.5866 H         1 <0>         0.0640
     34 H6          2.5377    0.2513    2.8430 H         1 <0>         0.0481
     35 H7          0.0867    0.6271    2.8512 H         1 <0>         0.0446
     36 H8         -0.1559   -0.9718    3.5948 H         1 <0>         0.0544
     37 H9          1.5223   -5.1490   -1.6275 H         1 <0>         0.1195
     38 H10        -0.2207   -4.8161   -1.4880 H         1 <0>         0.1211
     39 H11        -2.0720   -7.2468   -5.0203 H         1 <0>         0.0997
     40 H12        -1.0936   -5.8373   -5.5039 H         1 <0>         0.1160
     41 H13        -1.3986   -8.5140   -6.9857 H         1 <0>         0.1360
     42 H14        -1.6297   -6.8517   -7.6293 H         1 <0>         0.1427
     43 H15         1.8280   -6.3545   -5.2959 H         1 <0>         0.1558
     44 H16         2.0431   -8.1359   -5.3344 H         1 <0>         0.1422
     45 H17         0.4831   -6.9901   -1.2916 H         1 <0>         0.1478
     46 H18         0.2603   -9.4825   -3.1824 H         1 <0>         0.0991
     47 H19         0.5958   -9.5233   -1.3693 H         1 <0>         0.1086
     48 H20        -1.6183   -8.3649   -0.9336 H         1 <0>         0.1085
     49 H21        -1.9538   -8.3241   -2.7467 H         1 <0>         0.0970
@<TRIPOS>BOND
     1    1    2 1
     2    1   30 1
     3    1   31 1
     4    1   32 1
     5    2    8 ar
     6    2    3 ar
     7    3    4 ar
     8    4    5 ar
     9    4   14 1
    10    5    6 ar
    11    6    7 1
    12    6    8 ar
    13    8    9 1
    14    9   10 1
    15    9   33 1
    16    9   34 1
    17   10   11 1
    18   10   35 1
    19   10   36 1
    20   11   12 2
    21   11   13 1
    22   14   15 1
    23   15   16 1
    24   15   37 1
    25   15   38 1
    26   16   17 2
    27   16   18 am
    28   18   19 1
    29   18   27 1
    30   19   20 1
    31   19   26 1
    32   19   21 1
    33   21   22 1
    34   21   39 1
    35   21   40 1
    36   22   23 1
    37   22   41 1
    38   22   42 1
    39   23   24 2
    40   23   25 2
    41   23   26 1
    42   26   43 1
    43   26   44 1
    44   27   29 1
    45   27   28 1
    46   27   45 1
    47   28   29 1
    48   28   46 1
    49   28   47 1
    50   29   48 1
    51   29   49 1
@<TRIPOS>MOLECULE
ZINC15034763
   43    44     0     0     0
SMALL
USER_CHARGES

@<TRIPOS>ATOM
      1 C1         -3.7144   -4.3649   -1.5230 C.3       1 <0>         0.0181
      2 O1         -2.4552   -3.8484   -1.0876 O.3       1 <0>        -0.3035
      3 C2         -2.4441   -2.5796   -0.5982 C.ar      1 <0>         0.1495
      4 C3         -3.6186   -1.8543   -0.5346 C.ar      1 <0>        -0.2152
      5 C4         -3.6061   -0.5481   -0.0306 C.ar      1 <0>         0.0098
      6 C5         -2.4026    0.0179    0.4071 C.ar      1 <0>        -0.2068
      7 C6         -1.2324   -0.7140    0.3401 C.ar      1 <0>         0.1378
      8 C7         -1.2501   -2.0150   -0.1566 C.ar      1 <0>         0.0443
      9 O2         -0.0977   -2.7338   -0.2157 O.3       1 <0>        -0.4720
     10 O3         -0.0629   -0.1652    0.7649 O.3       1 <0>        -0.3054
     11 C8         -0.1185    1.1712    1.2681 C.3       1 <0>         0.0234
     12 C9         -4.8518    0.2262    0.0383 C.2       1 <0>         0.0052
     13 C10        -6.0497   -0.4053   -0.0561 C.2       1 <0>        -0.1645
     14 C11        -7.4073    0.1638   -0.1715 C.2       1 <0>         0.5325
     15 O4         -7.5968    1.3659   -0.1948 O.2       1 <0>        -0.4822
     16 N1         -8.4068   -0.6986   -0.2488 N.am      1 <0>        -0.4819
     17 C12        -8.1924   -2.0298   -0.2232 C.2       1 <0>         0.2181
     18 S1         -9.3434   -3.2940   -0.3114 S.2       1 <0>        -0.1538
     19 S2         -6.4167   -2.1547   -0.0828 S.3       1 <0>        -0.0201
     20 C13        -9.7782   -0.1965   -0.3645 C.3       1 <0>         0.0438
     21 H1         -9.7669    0.8934   -0.3698 H         1 <0>         0.1011
     22 C14       -10.6048   -0.6922    0.8238 C.3       1 <0>        -0.1032
     23 C15       -10.0578   -0.0815    2.1156 C.3       1 <0>        -0.1763
     24 C16       -10.8719   -0.5697    3.2860 C.2       1 <0>         0.4949
     25 O5        -11.8032   -1.3352    3.1038 O.co2     1 <0>        -0.6913
     26 O6        -10.5992   -0.1993    4.4151 O.co2     1 <0>        -0.7181
     27 C17       -10.3905   -0.6987   -1.6467 C.2       1 <0>         0.5025
     28 O7        -10.0397   -1.7700   -2.1112 O.co2     1 <0>        -0.6525
     29 O8        -11.2368   -0.0337   -2.2195 O.co2     1 <0>        -0.6824
     30 H2         -3.5826   -5.3830   -1.8892 H         1 <0>         0.1049
     31 H3         -4.4147   -4.3670   -0.6877 H         1 <0>         0.0660
     32 H4         -4.1066   -3.7385   -2.3242 H         1 <0>         0.0617
     33 H5         -4.5449   -2.2943   -0.8735 H         1 <0>         0.1540
     34 H6         -2.3888    1.0253    0.7961 H         1 <0>         0.1415
     35 H7          0.3886   -2.6298   -1.0450 H         1 <0>         0.3786
     36 H8         -0.4888    1.8376    0.4891 H         1 <0>         0.0579
     37 H9         -0.7885    1.2085    2.1269 H         1 <0>         0.0596
     38 H10         0.8796    1.4868    1.5719 H         1 <0>         0.0999
     39 H11        -4.8149    1.2983    0.1642 H         1 <0>         0.1591
     40 H12       -11.6448   -0.3936    0.6927 H         1 <0>         0.0789
     41 H13       -10.5432   -1.7789    0.8811 H         1 <0>         0.0957
     42 H14        -9.0177   -0.3801    2.2467 H         1 <0>         0.0390
     43 H15       -10.1194    1.0052    2.0582 H         1 <0>         0.0513
@<TRIPOS>BOND
     1    1    2 1
     2    1   30 1
     3    1   31 1
     4    1   32 1
     5    2    3 1
     6    3    8 ar
     7    3    4 ar
     8    4    5 ar
     9    4   33 1
    10    5    6 ar
    11    5   12 1
    12    6    7 ar
    13    6   34 1
    14    7    8 ar
    15    7   10 1
    16    8    9 1
    17    9   35 1
    18   10   11 1
    19   11   36 1
    20   11   37 1
    21   11   38 1
    22   12   13 2
    23   12   39 1
    24   13   19 1
    25   13   14 1
    26   14   15 2
    27   14   16 am
    28   16   17 1
    29   16   20 1
    30   17   18 2
    31   17   19 1
    32   20   21 1
    33   20   22 1
    34   20   27 1
    35   22   23 1
    36   22   40 1
    37   22   41 1
    38   23   24 1
    39   23   42 1
    40   23   43 1
    41   24   25 2
    42   24   26 1
    43   27   28 2
    44   27   29 1
@<TRIPOS>MOLECULE
ZINC16900462
   35    36     0     0     0
SMALL
USER_CHARGES

@<TRIPOS>ATOM
      1 C1         -0.0162    1.3913    0.0115 C.ar      1 <0>        -0.0306
      2 C2          0.4251    0.7220    1.1524 C.ar      1 <0>        -0.1515
      3 C3          1.6438    0.0383    1.1315 C.ar      1 <0>        -0.0599
      4 C4          2.4140    0.0252   -0.0213 C.ar      1 <0>         0.0549
      5 C5          1.9789    0.6894   -1.1580 C.ar      1 <0>        -0.0629
      6 C6          0.7612    1.3752   -1.1459 C.ar      1 <0>        -0.1550
      7 C7          0.2989    2.0814   -2.3564 C.2       1 <0>         0.5320
      8 O1         -0.7667    2.6812   -2.3449 O.co2     1 <0>        -0.6897
      9 O2          0.9814    2.0667   -3.3710 O.co2     1 <0>        -0.7011
     10 N1          3.6369   -0.6615   -0.0376 N.am      1 <0>        -0.5080
     11 C8          4.8170   -0.0373   -0.1385 C.2       1 <0>         0.5269
     12 O3          4.9719    1.1619   -0.2252 O.2       1 <0>        -0.4747
     13 C9          5.9268   -1.0658   -0.1264 C.3       1 <0>        -0.1261
     14 C10         5.1755   -2.4068    0.0002 C.3       1 <0>        -0.1033
     15 H1          5.3682   -3.0379   -0.8674 H         1 <0>         0.1350
     16 C11         3.7205   -1.9946    0.0521 C.2       1 <0>         0.5261
     17 O4          2.7794   -2.7518    0.1557 O.2       1 <0>        -0.4470
     18 S1          5.6497   -3.2625    1.5277 S.3       1 <0>        -0.2372
     19 C12         4.7933   -4.8580    1.4210 C.3       1 <0>        -0.0495
     20 C13         5.1110   -5.6916    2.6640 C.3       1 <0>        -0.1662
     21 C14         4.3994   -7.0171    2.5753 C.2       1 <0>         0.5007
     22 O5          3.7028   -7.2715    1.6076 O.co2     1 <0>        -0.6903
     23 O6          4.5204   -7.8350    3.4713 O.co2     1 <0>        -0.7065
     24 C15        -0.3934    0.7361    2.3802 C.2       1 <0>         0.5299
     25 O7         -1.4594    1.3350    2.3976 O.co2     1 <0>        -0.6913
     26 O8         -0.0055    0.1488    3.3803 O.co2     1 <0>        -0.6943
     27 H2         -0.9596    1.9169    0.0229 H         1 <0>         0.1358
     28 H3          1.9863   -0.4803    2.0148 H         1 <0>         0.1231
     29 H4          2.5818    0.6768   -2.0539 H         1 <0>         0.1195
     30 H5          6.4932   -1.0298   -1.0570 H         1 <0>         0.1260
     31 H6          6.5834   -0.9116    0.7298 H         1 <0>         0.1251
     32 H7          3.7180   -4.6899    1.3613 H         1 <0>         0.0976
     33 H8          5.1276   -5.3910    0.5309 H         1 <0>         0.0808
     34 H9          6.1863   -5.8597    2.7236 H         1 <0>         0.0632
     35 H10         4.7766   -5.1586    3.5541 H         1 <0>         0.0685
@<TRIPOS>BOND
     1    1    6 ar
     2    1    2 ar
     3    1   27 1
     4    2    3 ar
     5    2   24 1
     6    3    4 ar
     7    3   28 1
     8    4    5 ar
     9    4   10 1
    10    5    6 ar
    11    5   29 1
    12    6    7 1
    13    7    8 2
    14    7    9 1
    15   10   16 am
    16   10   11 am
    17   11   12 2
    18   11   13 1
    19   13   14 1
    20   13   30 1
    21   13   31 1
    22   14   15 1
    23   14   16 1
    24   14   18 1
    25   16   17 2
    26   18   19 1
    27   19   20 1
    28   19   32 1
    29   19   33 1
    30   20   21 1
    31   20   34 1
    32   20   35 1
    33   21   22 2
    34   21   23 1
    35   24   25 2
    36   24   26 1
@<TRIPOS>MOLECULE
ZINC17130611
   40    40     0     0     0
SMALL
USER_CHARGES
(E,4Z)-4-[cyano-[(2S,3S,4S,5S,6S)-3,4,5-trihydroxy-6-(hydroxymethyl)tetrahydropyran-2-yl]oxy-methylene]hex-2-enedioic acid
@<TRIPOS>ATOM
      1 C1         -0.1539    0.7376   -2.2900 C.3       1 <0>         0.0893
      2 C2         -0.8636    1.3475   -1.0796 C.3       1 <0>         0.1048
      3 H1         -1.8955    0.9978   -1.0487 H         1 <0>         0.0977
      4 C3         -0.1423    0.9233    0.2024 C.3       1 <0>         0.0879
      5 H2         -0.1928   -0.1605    0.3072 H         1 <0>         0.0783
      6 C4         -0.8206    1.5860    1.4054 C.3       1 <0>         0.0900
      7 H3         -0.2770    1.3329    2.3156 H         1 <0>         0.0623
      8 C5         -0.8137    3.1051    1.2084 C.3       1 <0>         0.0634
      9 H4          0.2151    3.4642    1.1814 H         1 <0>         0.0841
     10 C6         -1.5091    3.4450   -0.1124 C.3       1 <0>         0.2045
     11 H5         -1.4684    4.5216   -0.2781 H         1 <0>         0.1028
     12 O1         -0.8463    2.7725   -1.1850 O.3       1 <0>        -0.3645
     13 O2         -2.8730    3.0226   -0.0554 O.3       1 <0>        -0.2755
     14 C7         -3.7016    3.4878   -1.0204 C.2       1 <0>         0.0432
     15 C8         -4.7267    4.3212   -0.6935 C.2       1 <0>         0.0591
     16 C9         -5.7171    4.7466   -1.7467 C.3       1 <0>        -0.1472
     17 C10        -6.9182    3.8374   -1.7033 C.2       1 <0>         0.4746
     18 O3         -6.9651    2.9364   -0.8996 O.co2     1 <0>        -0.6199
     19 C11        -4.8620    4.7861    0.6296 C.2       1 <0>        -0.1159
     20 C12        -5.8268    5.6926    0.9358 C.2       1 <0>        -0.1136
     21 C13        -5.9627    6.1596    2.2646 C.2       1 <0>         0.4745
     22 O4         -5.2156    5.7494    3.1330 O.co2     1 <0>        -0.6371
     23 C14        -3.4991    3.1028   -2.3848 C.1       1 <0>         0.2479
     24 N1         -3.3384    2.7974   -3.4671 N.1       1 <0>        -0.4200
     25 O5         -1.5094    3.7300    2.2890 O.3       1 <0>        -0.5454
     26 O6         -2.1691    1.1245    1.5079 O.3       1 <0>        -0.5380
     27 O7          1.2250    1.3337    0.1392 O.3       1 <0>        -0.5475
     28 O8         -0.8928    1.0366   -3.4760 O.3       1 <0>        -0.5475
     29 H6          0.8493    1.1558   -2.3718 H         1 <0>         0.0560
     30 H7         -0.0878   -0.3433   -2.1659 H         1 <0>         0.0513
     31 H8         -6.0312    5.7729   -1.5566 H         1 <0>         0.0924
     32 H9         -5.2506    4.6856   -2.7299 H         1 <0>         0.0733
     33 H10        -4.1989    4.4220    1.4004 H         1 <0>         0.1360
     34 H11        -6.4899    6.0567    0.1650 H         1 <0>         0.1093
     35 H12        -1.5475    4.6942    2.2270 H         1 <0>         0.3914
     36 H13        -2.6594    1.5043    2.2498 H         1 <0>         0.3975
     37 H14         1.7428    1.0987    0.9213 H         1 <0>         0.3742
     38 H15        -0.5000    0.6800   -4.2845 H         1 <0>         0.3708
     39 O9         -7.9358    4.0285   -2.5575 O.co2     1 <0>        -0.7749
     40 O10        -6.9211    7.0601    2.5688 O.co2     1 <0>        -0.7700
@<TRIPOS>BOND
     1    1    2 1
     2    1   28 1
     3    1   29 1
     4    1   30 1
     5    2    3 1
     6    2   12 1
     7    2    4 1
     8    4    5 1
     9    4    6 1
    10    4   27 1
    11    6    7 1
    12    6    8 1
    13    6   26 1
    14    8    9 1
    15    8   10 1
    16    8   25 1
    17   10   11 1
    18   10   12 1
    19   10   13 1
    20   13   14 1
    21   14   15 2
    22   14   23 1
    23   15   16 1
    24   15   19 1
    25   16   17 1
    26   16   31 1
    27   16   32 1
    28   17   18 2
    29   17   39 1
    30   19   20 2
    31   19   33 1
    32   20   21 1
    33   20   34 1
    34   21   22 2
    35   21   40 1
    36   23   24 3
    37   25   35 1
    38   26   36 1
    39   27   37 1
    40   28   38 1
@<TRIPOS>MOLECULE
ZINC37387542
   29    29     0     0     0
SMALL
USER_CHARGES

@<TRIPOS>ATOM
      1 C1         -0.0167    1.3781    0.0096 C.2       1 <0>        -0.1313
      2 C2          1.1597    2.0514    0.0020 C.2       1 <0>        -0.1842
      3 S1          2.3478    0.7191   -0.0165 S.3       1 <0>         0.0016
      4 C3          1.1962   -0.6452   -0.0128 C.2       1 <0>        -0.1521
      5 C4          0.0021   -0.0041    0.0020 C.2       1 <0>        -0.0924
      6 C5         -1.2859   -0.7864    0.0106 C.3       1 <0>        -0.0891
      7 C6         -1.7293   -1.0396   -1.4073 C.2       1 <0>         0.5061
      8 O1         -1.0649   -0.6255   -2.3335 O.2       1 <0>        -0.5499
      9 N1         -2.8643   -1.7262   -1.6460 N.am      1 <0>        -0.6857
     10 C7         -3.2954   -1.9723   -3.0243 C.3       1 <0>         0.0755
     11 H1         -3.0327   -1.1160   -3.6455 H         1 <0>         0.0749
     12 C8         -4.8110   -2.1792   -3.0554 C.3       1 <0>        -0.0821
     13 C9         -5.5111   -0.8846   -2.6374 C.3       1 <0>        -0.1762
     14 C10        -7.0040   -1.0883   -2.6680 C.2       1 <0>         0.4908
     15 O2         -7.4652   -2.1689   -2.9940 O.co2     1 <0>        -0.6976
     16 O3         -7.7505   -0.1727   -2.3669 O.co2     1 <0>        -0.7201
     17 C11        -2.6091   -3.2055   -3.5526 C.2       1 <0>         0.4979
     18 O4         -2.2970   -4.1037   -2.7895 O.co2     1 <0>        -0.7008
     19 O5         -2.3659   -3.3051   -4.7432 O.co2     1 <0>        -0.7025
     20 H2         -0.9545    1.9134    0.0259 H         1 <0>         0.1321
     21 H3          1.3332    3.1174    0.0058 H         1 <0>         0.1809
     22 H4          1.3986   -1.7060   -0.0210 H         1 <0>         0.1840
     23 H5         -1.1294   -1.7384    0.5178 H         1 <0>         0.0986
     24 H6         -2.0533   -0.2172    0.5351 H         1 <0>         0.0958
     25 H7         -3.3957   -2.0574   -0.9051 H         1 <0>         0.3919
     26 H8         -5.1201   -2.4497   -4.0650 H         1 <0>         0.0708
     27 H9         -5.0828   -2.9783   -2.3658 H         1 <0>         0.0600
     28 H10        -5.2020   -0.6140   -1.6278 H         1 <0>         0.0513
     29 H11        -5.2392   -0.0855   -3.3270 H         1 <0>         0.0517
@<TRIPOS>BOND
     1    1    5 1
     2    1    2 2
     3    1   20 1
     4    2    3 1
     5    2   21 1
     6    3    4 1
     7    4    5 2
     8    4   22 1
     9    5    6 1
    10    6    7 1
    11    6   23 1
    12    6   24 1
    13    7    8 2
    14    7    9 am
    15    9   10 1
    16    9   25 1
    17   10   11 1
    18   10   12 1
    19   10   17 1
    20   12   13 1
    21   12   26 1
    22   12   27 1
    23   13   14 1
    24   13   28 1
    25   13   29 1
    26   14   15 2
    27   14   16 1
    28   17   18 2
    29   17   19 1
@<TRIPOS>MOLECULE
ZINC41033994
   37    38     0     0     0
SMALL
USER_CHARGES

@<TRIPOS>ATOM
      1 C1         -0.2764    1.5221    0.0491 C.3       1 <0>        -0.1528
      2 C2         -0.2556   -0.0078    0.0407 C.3       1 <0>        -0.0871
      3 H1          0.0749   -0.3613   -0.9360 H         1 <0>         0.0550
      4 C3         -1.6620   -0.5385    0.3260 C.3       1 <0>        -0.1067
      5 C4         -2.1259   -0.0423    1.6969 C.3       1 <0>        -0.1223
      6 C5         -1.1628   -0.5452    2.7741 C.3       1 <0>        -0.1034
      7 C6          0.2436   -0.0145    2.4888 C.3       1 <0>         0.1129
      8 C7          0.7075   -0.5107    1.1179 C.3       1 <0>        -0.1062
      9 C8          1.1922   -0.5098    3.5498 C.2       1 <0>         0.5006
     10 O1          1.3562   -1.7073    3.7100 O.co2     1 <0>        -0.7119
     11 O2          1.7958    0.2869    4.2479 O.co2     1 <0>        -0.6684
     12 N1          0.2237    1.4504    2.4968 N.am      1 <0>        -0.6961
     13 C9          1.3619    2.1409    2.2870 C.2       1 <0>         0.5659
     14 O3          2.4042    1.5487    2.0912 O.2       1 <0>        -0.5175
     15 C10         1.3418    3.6262    2.2951 C.2       1 <0>         0.0372
     16 C11         0.1500    4.3176    2.5191 C.2       1 <0>        -0.3498
     17 C12         0.1560    5.7060    2.5221 C.2       1 <0>         0.4742
     18 N2          1.3042    6.3878    2.3098 N.am      1 <0>        -0.6020
     19 C13         2.4706    5.7398    2.0907 C.2       1 <0>         0.4743
     20 C14         2.5154    4.3520    2.0847 C.2       1 <0>        -0.3144
     21 O4          3.5919    6.4416    1.8835 O.2       1 <0>        -0.6847
     22 O5         -0.9840    6.3749    2.7363 O.3       1 <0>        -0.6905
     23 H2          0.7462    1.8992    0.0598 H         1 <0>         0.0540
     24 H3         -0.7876    1.8834   -0.8432 H         1 <0>         0.0317
     25 H4         -0.8026    1.8734    0.9367 H         1 <0>         0.0767
     26 H5         -2.3482   -0.1802   -0.4414 H         1 <0>         0.0508
     27 H6         -1.6472   -1.6284    0.3200 H         1 <0>         0.0557
     28 H7         -2.1407    1.0476    1.7029 H         1 <0>         0.0638
     29 H8         -3.1279   -0.4203    1.9002 H         1 <0>         0.0531
     30 H9         -1.4933   -0.1916    3.7508 H         1 <0>         0.0570
     31 H10        -1.1480   -1.6350    2.7681 H         1 <0>         0.0757
     32 H11         0.7223   -1.6006    1.1119 H         1 <0>         0.0630
     33 H12         1.7094   -0.1326    0.9146 H         1 <0>         0.0762
     34 H13        -0.6087    1.9233    2.6532 H         1 <0>         0.3870
     35 H14        -0.7695    3.7768    2.6883 H         1 <0>         0.1211
     36 H15         3.4500    3.8383    1.9142 H         1 <0>         0.1332
     37 H16         1.2910    7.3577    2.3145 H         1 <0>         0.3947
@<TRIPOS>BOND
     1    1    2 1
     2    1   23 1
     3    1   24 1
     4    1   25 1
     5    2    3 1
     6    2    8 1
     7    2    4 1
     8    4    5 1
     9    4   26 1
    10    4   27 1
    11    5    6 1
    12    5   28 1
    13    5   29 1
    14    6    7 1
    15    6   30 1
    16    6   31 1
    17    7    8 1
    18    7    9 1
    19    7   12 1
    20    8   32 1
    21    8   33 1
    22    9   10 2
    23    9   11 1
    24   12   13 am
    25   12   34 1
    26   13   14 2
    27   13   15 1
    28   15   16 1
    29   15   20 2
    30   16   17 2
    31   16   35 1
    32   17   18 1
    33   17   22 1
    34   18   37 1
    35   18   19 am
    36   19   20 1
    37   19   21 2
    38   20   36 1
@<TRIPOS>MOLECULE
ZINC50421476
   33    33     0     0     0
SMALL
USER_CHARGES

@<TRIPOS>ATOM
      1 C1         -0.0178    1.4608    0.0101 C.3       1 <0>         0.0668
      2 N1          0.0021   -0.0041    0.0020 N.pl3     1 <0>        -0.4684
      3 C2          0.0087   -0.8131   -1.0848 C.2       1 <0>         0.1453
      4 N2          0.0272   -2.0444   -0.6522 N.2       1 <0>        -0.3003
      5 N3          0.0324   -2.0514    0.6337 N.2       1 <0>        -0.2757
      6 C3          0.0235   -0.8248    1.0798 C.2       1 <0>         0.1690
      7 C4          0.0319   -0.4002    2.5258 C.3       1 <0>         0.2323
      8 N4         -1.3464   -0.2810    3.0078 N.am      1 <0>        -0.7538
      9 C5         -1.5852    0.0891    4.2815 C.2       1 <0>         0.7115
     10 O1         -0.6568    0.3239    5.0306 O.2       1 <0>        -0.5994
     11 N5         -2.8532    0.1988    4.7249 N.am      1 <0>        -0.6968
     12 C6         -3.1129    0.6010    6.1095 C.3       1 <0>         0.0913
     13 H1         -2.3397    0.1896    6.7584 H         1 <0>         0.0772
     14 C7         -4.4803    0.0718    6.5465 C.3       1 <0>        -0.0808
     15 C8         -4.4521   -1.4578    6.5679 C.3       1 <0>        -0.1767
     16 C9         -5.7990   -1.9791    6.9983 C.2       1 <0>         0.4906
     17 O2         -6.6981   -1.1994    7.2633 O.co2     1 <0>        -0.6985
     18 O3         -5.9896   -3.1804    7.0814 O.co2     1 <0>        -0.7198
     19 C10        -3.1019    2.1049    6.2061 C.2       1 <0>         0.4966
     20 O4         -3.0794    2.7808    5.1917 O.co2     1 <0>        -0.7015
     21 O5         -3.1156    2.6456    7.2988 O.co2     1 <0>        -0.7024
     22 H2          1.0048    1.8381    0.0023 H         1 <0>         0.0843
     23 H3         -0.5450    1.8219   -0.8730 H         1 <0>         0.0931
     24 H4         -0.5280    1.8123    0.9069 H         1 <0>         0.1013
     25 H5         -0.0002   -0.4977   -2.1177 H         1 <0>         0.2177
     26 H6          0.5615   -1.1449    3.1200 H         1 <0>         0.0987
     27 H7          0.5339    0.5628    2.6187 H         1 <0>         0.0817
     28 H8         -2.0871   -0.4684    2.4101 H         1 <0>         0.3930
     29 H9         -3.5939    0.0114    4.1273 H         1 <0>         0.3874
     30 H10        -4.7124    0.4449    7.5440 H         1 <0>         0.0770
     31 H11        -5.2424    0.4114    5.8451 H         1 <0>         0.0557
     32 H12        -4.2199   -1.8309    5.5704 H         1 <0>         0.0510
     33 H13        -3.6900   -1.7974    7.2693 H         1 <0>         0.0527
@<TRIPOS>BOND
     1    1    2 1
     2    1   22 1
     3    1   23 1
     4    1   24 1
     5    2    6 1
     6    2    3 1
     7    3    4 2
     8    3   25 1
     9    4    5 1
    10    5    6 2
    11    6    7 1
    12    7    8 1
    13    7   26 1
    14    7   27 1
    15    8    9 am
    16    8   28 1
    17    9   10 2
    18    9   11 am
    19   11   12 1
    20   11   29 1
    21   12   13 1
    22   12   14 1
    23   12   19 1
    24   14   15 1
    25   14   30 1
    26   14   31 1
    27   15   16 1
    28   15   32 1
    29   15   33 1
    30   16   17 2
    31   16   18 1
    32   19   20 2
    33   19   21 1
@<TRIPOS>MOLECULE
ZINC65587721
   32    34     0     0     0
SMALL
USER_CHARGES

@<TRIPOS>ATOM
      1 C1         -0.0178    1.4608    0.0101 C.3       1 <0>         0.1008
      2 N1          0.0021   -0.0041    0.0020 N.pl3     1 <0>        -0.3829
      3 C2          0.0078   -0.7920   -1.0936 C.2       1 <0>         0.1582
      4 C3          0.0272   -2.0789   -0.6760 C.2       1 <0>        -0.7426
      5 C4          0.0335   -2.0775    0.7227 C.2       1 <0>         0.1311
      6 N2          0.0246   -0.8342    1.1302 N.2       1 <0>        -0.3152
      7 S1          0.0410   -3.5046   -1.7112 S.o2      1 <0>         2.6257
      8 O1         -0.4917   -4.5722   -0.9393 O.2       1 <0>        -1.0357
      9 O2         -0.5215   -3.1090   -2.9547 O.2       1 <0>        -1.0415
     10 N3          1.6266   -3.8796   -2.0070 N.2       1 <0>        -1.0978
     11 C5          1.9470   -4.9785   -2.8095 C.ar      1 <0>         0.2885
     12 C6          0.9284   -5.7516   -3.3628 C.ar      1 <0>        -0.2681
     13 C7          1.2280   -6.8287   -4.1493 C.ar      1 <0>        -0.0105
     14 C8          2.5579   -7.1564   -4.3998 C.ar      1 <0>        -0.1554
     15 C9          3.5921   -6.3844   -3.8475 C.ar      1 <0>         0.1291
     16 C10         3.2742   -5.2877   -3.0537 C.ar      1 <0>        -0.2276
     17 N4          4.7879   -6.9362   -4.2600 N.pl3     1 <0>        -0.6042
     18 H1          5.6648   -6.5972   -4.0213 H         1 <0>         0.3960
     19 C11         4.5655   -8.0165   -5.0441 C.2       1 <0>         0.0195
     20 C12         3.2212   -8.2198   -5.1797 C.2       1 <0>        -0.1941
     21 C13         2.5679   -9.2817   -5.9470 C.2       1 <0>         0.5481
     22 O3          3.2437  -10.1045   -6.5518 O.co2     1 <0>        -0.7177
     23 O4          1.3457   -9.3472   -5.9840 O.co2     1 <0>        -0.6959
     24 H2          1.0048    1.8381    0.0023 H         1 <0>         0.0732
     25 H3         -0.5450    1.8219   -0.8730 H         1 <0>         0.0861
     26 H4         -0.5280    1.8123    0.9069 H         1 <0>         0.0856
     27 H5         -0.0017   -0.4556   -2.1198 H         1 <0>         0.1865
     28 H6          0.0482   -2.9516    1.3568 H         1 <0>         0.1935
     29 H7         -0.1035   -5.4986   -3.1689 H         1 <0>         0.0941
     30 H8          0.4345   -7.4247   -4.5753 H         1 <0>         0.1168
     31 H9          4.0595   -4.6822   -2.6257 H         1 <0>         0.1003
     32 H10         5.3347   -8.6260   -5.4950 H         1 <0>         0.1561
@<TRIPOS>BOND
     1    1    2 1
     2    1   24 1
     3    1   25 1
     4    1   26 1
     5    2    6 1
     6    2    3 1
     7    3    4 2
     8    3   27 1
     9    4    5 1
    10    4    7 1
    11    5    6 2
    12    5   28 1
    13    7    8 2
    14    7    9 2
    15    7   10 1
    16   10   11 1
    17   11   16 ar
    18   11   12 ar
    19   12   13 ar
    20   12   29 1
    21   13   14 ar
    22   13   30 1
    23   14   20 1
    24   14   15 ar
    25   15   16 ar
    26   15   17 1
    27   16   31 1
    28   17   18 1
    29   17   19 1
    30   19   20 2
    31   19   32 1
    32   20   21 1
    33   21   22 2
    34   21   23 1
@<TRIPOS>MOLECULE
ZINC32501068
   22    21     0     0     0
SMALL
USER_CHARGES
(2R)-2-[(2,2,2-trifluoroacetyl)amino]pentanedioic acid
@<TRIPOS>ATOM
      1 C1         -3.5593    1.9824   -0.5799 C.3       1 <0>        -0.0858
      2 C2         -3.2530    2.2555   -2.0539 C.3       1 <0>        -0.1557
      3 C3         -4.3464    3.1080   -2.6445 C.2       1 <0>         0.4616
      4 O1         -5.2752    3.4610   -1.9571 O.co2     1 <0>        -0.6382
      5 O2         -4.2883    3.4753   -3.9343 O.co2     1 <0>        -0.7891
      6 C4         -2.4492    1.1169    0.0197 C.3       1 <0>         0.1006
      7 H1         -2.2931    0.2056   -0.5763 H         1 <0>         0.0911
      8 C5         -2.8108    0.7458    1.4349 C.2       1 <0>         0.4648
      9 O3         -2.0909    1.0738    2.3481 O.co2     1 <0>        -0.6366
     10 O4         -3.9325    0.0508    1.6808 O.co2     1 <0>        -0.7612
     11 N1         -1.1906    1.8666    0.0178 N.am      1 <0>        -0.6670
     12 C6         -0.0144    1.2086    0.0087 C.2       1 <0>         0.4814
     13 O5          0.0021   -0.0041    0.0020 O.2       1 <0>        -0.5030
     14 C7          1.2803    1.9798    0.0005 C.3       1 <0>         0.4481
     15 F1          2.3559    1.0853   -0.0146 F         1 <0>        -0.1650
     16 F2          1.3326    2.7912   -1.1380 F         1 <0>        -0.1738
     17 F3          1.3544    2.7789    1.1464 F         1 <0>        -0.1697
     18 H2         -3.6159    2.9359   -0.0344 H         1 <0>         0.0630
     19 H3         -4.5209    1.4548   -0.4968 H         1 <0>         0.0905
     20 H4         -2.2914    2.7831   -2.1369 H         1 <0>         0.0592
     21 H5         -3.1963    1.3020   -2.5994 H         1 <0>         0.0619
     22 H6         -1.2056    2.9665    0.0238 H         1 <0>         0.4228
@<TRIPOS>BOND
     1    1    2 1
     2    1    6 1
     3    1   18 1
     4    1   19 1
     5    2    3 1
     6    2   20 1
     7    2   21 1
     8    3    4 2
     9    3    5 1
    10    6    7 1
    11    6    8 1
    12    6   11 1
    13    8    9 2
    14    8   10 1
    15   11   12 am
    16   11   22 1
    17   12   13 2
    18   12   14 1
    19   14   15 1
    20   14   16 1
    21   14   17 1
@<TRIPOS>MOLECULE
ZINC35466022
   39    40     0     0     0
SMALL
USER_CHARGES

@<TRIPOS>ATOM
      1 C1          0.0548    1.4409   -0.0830 C.3       1 <0>        -0.1448
      2 C2          0.1013   -0.0883   -0.0656 C.3       1 <0>        -0.0057
      3 C3         -1.3167   -0.6510   -0.1123 C.3       1 <0>        -0.0963
      4 C4         -2.0441   -0.3767    1.2039 C.3       1 <0>        -0.1165
      5 C5         -1.3038   -1.0608    2.3477 C.3       1 <0>        -0.1016
      6 C6          0.1273   -0.5260    2.4649 C.3       1 <0>        -0.0391
      7 C7          0.8600   -0.6272    1.1454 C.3       1 <0>        -0.1083
      8 H1          1.0383   -1.7163    0.9570 H         1 <0>         0.0993
      9 C8          2.2235    0.0258    1.1782 C.2       1 <0>         0.4084
     10 O1          2.7648    0.4072    2.1915 O.2       1 <0>        -0.4882
     11 C9          2.9253    0.1778   -0.1186 C.2       1 <0>        -0.2575
     12 C10         2.2921   -0.0983   -1.2637 C.2       1 <0>        -0.0601
     13 C11         0.8601   -0.5447   -1.3248 C.3       1 <0>         0.0949
     14 C12         0.2160    0.0654   -2.5417 C.2       1 <0>         0.5245
     15 O2          0.2599    1.2714   -2.7148 O.co2     1 <0>        -0.6931
     16 O3         -0.3494   -0.6468   -3.3539 O.co2     1 <0>        -0.6944
     17 O4          0.8090   -1.9660   -1.4195 O.3       1 <0>        -0.5533
     18 C13         3.0361    0.0416   -2.5309 C.2       1 <0>         0.5059
     19 O5          4.2041    0.4027   -2.5173 O.co2     1 <0>        -0.7060
     20 O6          2.4843   -0.2036   -3.5941 O.co2     1 <0>        -0.6416
     21 C14         0.8497   -1.4224    3.4967 C.3       1 <0>        -0.1477
     22 C15         0.0895    0.8925    3.0300 C.3       1 <0>        -0.1504
     23 H2          1.0608    1.8334   -0.2312 H         1 <0>         0.0535
     24 H3         -0.5892    1.7755   -0.8963 H         1 <0>         0.0856
     25 H4         -0.3405    1.8032    0.8660 H         1 <0>         0.0409
     26 H5         -1.8790   -0.1823   -0.9228 H         1 <0>         0.0653
     27 H6         -1.2809   -1.7286   -0.2824 H         1 <0>         0.0689
     28 H7         -2.1264    0.6913    1.3802 H         1 <0>         0.0607
     29 H8         -3.0571   -0.7927    1.1369 H         1 <0>         0.0493
     30 H9         -1.8306   -0.8749    3.2865 H         1 <0>         0.0523
     31 H10        -1.2687   -2.1376    2.1698 H         1 <0>         0.0577
     32 H11         3.9508    0.5132   -0.1322 H         1 <0>         0.1288
     33 H12         1.2677   -2.3256   -2.1911 H         1 <0>         0.3763
     34 H13         0.8477   -2.4544    3.1459 H         1 <0>         0.0465
     35 H14         1.8780   -1.0816    3.6172 H         1 <0>         0.0657
     36 H15         0.3327   -1.3632    4.4544 H         1 <0>         0.0458
     37 H16        -0.2420    0.8614    4.0679 H         1 <0>         0.0439
     38 H17         1.0865    1.3302    2.9799 H         1 <0>         0.0712
     39 H18        -0.6030    1.4981    2.4454 H         1 <0>         0.0590
@<TRIPOS>BOND
     1    1    2 1
     2    1   23 1
     3    1   24 1
     4    1   25 1
     5    2    7 1
     6    2   13 1
     7    2    3 1
     8    3    4 1
     9    3   26 1
    10    3   27 1
    11    4    5 1
    12    4   28 1
    13    4   29 1
    14    5    6 1
    15    5   30 1
    16    5   31 1
    17    6    7 1
    18    6   21 1
    19    6   22 1
    20    7    8 1
    21    7    9 1
    22    9   10 2
    23    9   11 1
    24   11   12 2
    25   11   32 1
    26   12   13 1
    27   12   18 1
    28   13   14 1
    29   13   17 1
    30   14   15 2
    31   14   16 1
    32   17   33 1
    33   18   19 2
    34   18   20 1
    35   21   34 1
    36   21   35 1
    37   21   36 1
    38   22   37 1
    39   22   38 1
    40   22   39 1
@<TRIPOS>MOLECULE
ZINC43583765
   36    37     0     0     0
SMALL
USER_CHARGES

@<TRIPOS>ATOM
      1 C1          0.0128    1.4032   -0.2133 C.2       1 <0>        -0.3586
      2 C2          1.1813    2.0862    0.0602 C.2       1 <0>         0.1973
      3 N1          2.2925    1.4047    0.3715 N.2       1 <0>        -0.6026
      4 C3          2.2975    0.0922    0.4232 C.2       1 <0>         0.6082
      5 O1          3.4403   -0.5503    0.7410 O.3       1 <0>        -0.6715
      6 N2          1.1787   -0.6331    0.1645 N.am      1 <0>        -0.6592
      7 H1          1.2082   -1.6016    0.2096 H         1 <0>         0.3972
      8 C4          0.0259   -0.0082   -0.1557 C.2       1 <0>         0.5428
      9 O2         -0.9845   -0.6494   -0.3899 O.2       1 <0>        -0.5916
     10 C5          1.2067    3.5712    0.0092 C.2       1 <0>         0.5687
     11 O3          0.1707    4.1923   -0.1173 O.2       1 <0>        -0.5397
     12 N3          2.3795    4.2287    0.1033 N.am      1 <0>        -0.5883
     13 C6          3.6525    3.4954    0.0832 C.3       1 <0>         0.0642
     14 C7          4.5467    4.0898   -1.0095 C.3       1 <0>        -0.1329
     15 C8          4.6924    5.5959   -0.7806 C.3       1 <0>        -0.1134
     16 C9          3.3172    6.2621   -0.8664 C.3       1 <0>        -0.1023
     17 H2          2.8774    6.0639   -1.8439 H         1 <0>         0.0667
     18 C10         2.4093    5.6929    0.2218 C.3       1 <0>         0.1128
     19 C11         3.4682    7.7720   -0.6709 C.3       1 <0>        -0.0815
     20 C12         2.1133    8.4513   -0.8802 C.3       1 <0>        -0.1850
     21 C13         2.2619    9.9385   -0.6877 C.2       1 <0>         0.4900
     22 O4          3.3506   10.4113   -0.4089 O.co2     1 <0>        -0.7035
     23 O5          1.2935   10.6690   -0.8107 O.co2     1 <0>        -0.7124
     24 H3         -0.8928    1.9368   -0.4615 H         1 <0>         0.1410
     25 H4          4.1450    3.5918    1.0509 H         1 <0>         0.0556
     26 H5          3.4648    2.4432   -0.1304 H         1 <0>         0.1691
     27 H6          5.5291    3.6193   -0.9715 H         1 <0>         0.0668
     28 H7          4.0952    3.9121   -1.9856 H         1 <0>         0.0573
     29 H8          5.1210    5.7736    0.2057 H         1 <0>         0.0600
     30 H9          5.3481    6.0172   -1.5426 H         1 <0>         0.0572
     31 H10         1.4017    6.0900    0.0995 H         1 <0>         0.0921
     32 H11         2.7982    5.9724    1.2010 H         1 <0>         0.0634
     33 H12         3.8235    7.9738    0.3395 H         1 <0>         0.0588
     34 H13         4.1855    8.1619   -1.3930 H         1 <0>         0.0593
     35 H14         1.7579    8.2495   -1.8907 H         1 <0>         0.0546
     36 H15         1.3959    8.0613   -0.1581 H         1 <0>         0.0595
@<TRIPOS>BOND
     1    1    8 1
     2    1    2 2
     3    1   24 1
     4    2    3 1
     5    2   10 1
     6    3    4 2
     7    4    5 1
     8    4    6 1
     9    6    7 1
    10    6    8 am
    11    8    9 2
    12   10   11 2
    13   10   12 am
    14   12   18 1
    15   12   13 1
    16   13   14 1
    17   13   25 1
    18   13   26 1
    19   14   15 1
    20   14   27 1
    21   14   28 1
    22   15   16 1
    23   15   29 1
    24   15   30 1
    25   16   17 1
    26   16   18 1
    27   16   19 1
    28   18   31 1
    29   18   32 1
    30   19   20 1
    31   19   33 1
    32   19   34 1
    33   20   21 1
    34   20   35 1
    35   20   36 1
    36   21   22 2
    37   21   23 1
@<TRIPOS>MOLECULE
ZINC05728579
   34    36     0     0     0
SMALL
USER_CHARGES

@<TRIPOS>ATOM
      1 C1          0.8484    1.4750    0.0249 C.3       1 <0>        -0.1006
      2 C2          0.6839   -0.0230    0.0176 C.ar      1 <0>        -0.1429
      3 C3          0.4011   -0.6802   -1.1657 C.ar      1 <0>        -0.0866
      4 C4          0.2497   -2.0530   -1.1758 C.ar      1 <0>        -0.1776
      5 C5          0.3824   -2.7734    0.0041 C.ar      1 <0>         0.2007
      6 C6          0.6669   -2.1103    1.1909 C.ar      1 <0>        -0.1553
      7 C7          0.8218   -0.7379    1.1933 C.ar      1 <0>        -0.0832
      8 N1          0.2293   -4.1636   -0.0025 N.am      1 <0>        -0.3625
      9 C8          0.3293   -4.9662    1.0763 C.2       1 <0>         0.5886
     10 O1          0.5655   -4.6215    2.2191 O.2       1 <0>        -0.5504
     11 C9          0.0967   -6.3409    0.6026 C.2       1 <0>        -0.5061
     12 C10        -0.1337   -6.2432   -0.7824 C.2       1 <0>         0.5307
     13 N2         -0.0576   -4.9415   -1.1270 N.pl3     1 <0>        -0.5186
     14 H1         -0.1814   -4.5960   -2.0250 H         1 <0>         0.4157
     15 O2         -0.3901   -7.2673   -1.6149 O.3       1 <0>        -0.6647
     16 C11         0.1037   -7.5097    1.3744 C.2       1 <0>         0.2529
     17 C12        -0.8837   -7.7146    2.3399 C.2       1 <0>        -0.3392
     18 C13        -2.0170   -6.7874    2.4809 C.2       1 <0>         0.5612
     19 O3         -2.1252   -5.8138    1.7579 O.2       1 <0>        -0.5075
     20 N3         -2.9341   -7.0502    3.4372 N.am      1 <0>        -0.6586
     21 C14        -2.8035   -8.1279    4.2280 C.2       1 <0>         0.5681
     22 S1         -3.9940   -8.4149    5.4244 S.2       1 <0>        -0.7524
     23 N4         -1.7894   -8.9821    4.1216 N.2       1 <0>        -0.6146
     24 C15        -0.8346   -8.8309    3.2199 C.2       1 <0>         0.5072
     25 O4          0.1770   -9.7221    3.1387 O.3       1 <0>        -0.6253
     26 H2          1.8931    1.7267   -0.1578 H         1 <0>         0.0603
     27 H3          0.2272    1.9125   -0.7566 H         1 <0>         0.0580
     28 H4          0.5438    1.8692    0.9944 H         1 <0>         0.0599
     29 H5          0.2981   -0.1194   -2.0829 H         1 <0>         0.1183
     30 H6          0.0281   -2.5656   -2.1002 H         1 <0>         0.1173
     31 H7          0.7707   -2.6676    2.1101 H         1 <0>         0.1582
     32 H8          1.0468   -0.2221    2.1150 H         1 <0>         0.1221
     33 H9          0.8729   -8.2525    1.2227 H         1 <0>         0.1202
     34 H10        -3.6921   -6.4563    3.5538 H         1 <0>         0.4068
@<TRIPOS>BOND
     1    1    2 1
     2    1   26 1
     3    1   27 1
     4    1   28 1
     5    2    7 ar
     6    2    3 ar
     7    3    4 ar
     8    3   29 1
     9    4    5 ar
    10    4   30 1
    11    5    6 ar
    12    5    8 1
    13    6    7 ar
    14    6   31 1
    15    7   32 1
    16    8   13 1
    17    8    9 am
    18    9   10 2
    19    9   11 1
    20   11   12 2
    21   11   16 1
    22   12   13 1
    23   12   15 1
    24   13   14 1
    25   16   17 2
    26   16   33 1
    27   17   24 1
    28   17   18 1
    29   18   19 2
    30   18   20 am
    31   20   21 1
    32   20   34 1
    33   21   22 2
    34   21   23 1
    35   23   24 2
    36   24   25 1
@<TRIPOS>MOLECULE
ZINC63155231
   34    35     0     0     0
SMALL
USER_CHARGES

@<TRIPOS>ATOM
      1 C1         -0.0168    1.3876    0.0097 C.ar      1 <0>        -0.1378
      2 C2          1.1633    2.1016    0.0022 C.ar      1 <0>        -0.2509
      3 C3          2.3820    1.4353   -0.0130 C.ar      1 <0>         0.2716
      4 C4          2.4091    0.0308   -0.0208 C.ar      1 <0>        -0.1676
      5 C5          1.2063   -0.6840   -0.0132 C.ar      1 <0>        -0.1091
      6 C6          0.0021   -0.0041    0.0020 C.ar      1 <0>         0.0703
      7 N1         -1.2023   -0.7182    0.0097 N.pl3     1 <0>        -0.9033
      8 C7          3.6940   -0.6840   -0.0374 C.2       1 <0>         0.5293
      9 O1          3.7134   -1.9075   -0.0442 O.co2     1 <0>        -0.7425
     10 O2          4.7437   -0.0554   -0.0445 O.co2     1 <0>        -0.6546
     11 N2          3.5706    2.1557   -0.0209 N.2       1 <0>        -1.0146
     12 S1          3.5354    3.8113   -0.0122 S.o2      1 <0>         2.4961
     13 O3          2.9130    4.1672   -1.2391 O.2       1 <0>        -1.0290
     14 O4          2.9370    4.1548    1.2300 O.2       1 <0>        -1.0500
     15 C8          5.2781    4.3148   -0.0267 C.3       1 <0>        -0.5982
     16 C9          5.3678    5.8421   -0.0198 C.3       1 <0>         0.0903
     17 H1          4.8774    6.2453    0.8662 H         1 <0>         0.0771
     18 C10         6.8491    6.2941   -0.0672 C.3       1 <0>        -0.1437
     19 C11         6.7056    7.7098   -0.6893 C.3       1 <0>        -0.1564
     20 C12         5.5138    7.5250   -1.6530 C.3       1 <0>         0.0481
     21 O5          4.7705    6.3820   -1.2094 O.3       1 <0>        -0.3652
     22 H2         -0.9611    1.9115    0.0260 H         1 <0>         0.0846
     23 H3          1.1397    3.1813    0.0079 H         1 <0>         0.0917
     24 H4          1.2183   -1.7639   -0.0195 H         1 <0>         0.1045
     25 H5         -2.0479   -0.2431    0.0203 H         1 <0>         0.3748
     26 H6         -1.1911   -1.6882    0.0044 H         1 <0>         0.3793
     27 H7          5.7784    3.9175    0.8565 H         1 <0>         0.1304
     28 H8          5.7610    3.9265   -0.9234 H         1 <0>         0.1257
     29 H9          7.2761    6.3465    0.9343 H         1 <0>         0.0829
     30 H10         7.4389    5.6405   -0.7100 H         1 <0>         0.0834
     31 H11         6.4734    8.4488    0.0776 H         1 <0>         0.0736
     32 H12         7.6071    7.9866   -1.2359 H         1 <0>         0.0782
     33 H13         4.8779    8.4100   -1.6286 H         1 <0>         0.0639
     34 H14         5.8798    7.3590   -2.6662 H         1 <0>         0.0671
@<TRIPOS>BOND
     1    1    6 ar
     2    1    2 ar
     3    1   22 1
     4    2    3 ar
     5    2   23 1
     6    3    4 ar
     7    3   11 1
     8    4    5 ar
     9    4    8 1
    10    5    6 ar
    11    5   24 1
    12    6    7 1
    13    7   25 1
    14    7   26 1
    15    8    9 2
    16    8   10 1
    17   11   12 1
    18   12   13 2
    19   12   14 2
    20   12   15 1
    21   15   16 1
    22   15   27 1
    23   15   28 1
    24   16   17 1
    25   16   21 1
    26   16   18 1
    27   18   19 1
    28   18   29 1
    29   18   30 1
    30   19   20 1
    31   19   31 1
    32   19   32 1
    33   20   21 1
    34   20   33 1
    35   20   34 1
@<TRIPOS>MOLECULE
ZINC13027643
   35    35     0     0     0
SMALL
USER_CHARGES
(2S)-2-[[5-[(E)-3-hydroxy-3-oxo-prop-1-enyl]-2-methoxy-phenyl]sulfonylamino]propanoic acid
@<TRIPOS>ATOM
      1 C1         -3.3018    1.7523   -1.3112 C.3       1 <0>        -0.1453
      2 C2         -2.0477    0.9692   -1.7047 C.3       1 <0>         0.1018
      3 H1         -2.0252    0.0233   -1.1634 H         1 <0>         0.0925
      4 C3         -2.0687    0.6991   -3.1872 C.2       1 <0>         0.4706
      5 O1         -1.1800    1.1184   -3.8903 O.co2     1 <0>        -0.6319
      6 N1         -0.8568    1.7531   -1.3680 N.pl3     1 <0>        -1.0836
      7 S1         -0.0575    1.4747    0.0554 S.o2      1 <0>         2.7018
      8 O2          0.1349    0.0697    0.1452 O.2       1 <0>        -0.9661
      9 O3          1.0233    2.3961    0.1012 O.2       1 <0>        -0.9656
     10 C4         -1.1525    1.9176    1.3630 C.ar      1 <0>        -0.6993
     11 C5         -1.6169    0.9518    2.2272 C.ar      1 <0>         0.0214
     12 C6         -2.4822    1.3059    3.2689 C.ar      1 <0>        -0.0961
     13 C7         -2.8800    2.6399    3.4192 C.ar      1 <0>        -0.0272
     14 C8         -2.4144    3.5968    2.5463 C.ar      1 <0>        -0.2261
     15 C9         -1.5505    3.2406    1.5166 C.ar      1 <0>         0.2168
     16 O4         -1.0945    4.1880    0.6582 O.3       1 <0>        -0.3062
     17 C10        -1.5428    5.5278    0.8730 C.3       1 <0>         0.0282
     18 C11        -2.9763    0.2800    4.1980 C.2       1 <0>        -0.0970
     19 C12        -3.8156    0.6235    5.1992 C.2       1 <0>        -0.1585
     20 C13        -4.2923   -0.3662    6.0956 C.2       1 <0>         0.4732
     21 O5         -3.9454   -1.5246    5.9631 O.co2     1 <0>        -0.6369
     22 H2         -4.1879    1.1690   -1.5617 H         1 <0>         0.0729
     23 H3         -3.2866    1.9476   -0.2389 H         1 <0>         0.0458
     24 H4         -3.3243    2.6981   -1.8525 H         1 <0>         0.0517
     25 H5         -0.5364    2.4351   -1.9787 H         1 <0>         0.4194
     26 H6         -1.3108   -0.0766    2.1041 H         1 <0>         0.1523
     27 H7         -3.5507    2.9176    4.2188 H         1 <0>         0.1367
     28 H8         -2.7209    4.6260    2.6612 H         1 <0>         0.1339
     29 H9         -1.1051    6.1825    0.1195 H         1 <0>         0.1028
     30 H10        -2.6297    5.5636    0.7983 H         1 <0>         0.0588
     31 H11        -1.2356    5.8591    1.8649 H         1 <0>         0.0573
     32 H12        -2.6683   -0.7484    4.0803 H         1 <0>         0.1325
     33 H13        -4.1236    1.6519    5.3169 H         1 <0>         0.1037
     34 O6         -3.0747   -0.0072   -3.7265 O.co2     1 <0>        -0.7617
     35 O7         -5.1306   -0.0232    7.0957 O.co2     1 <0>        -0.7725
@<TRIPOS>BOND
     1    1    2 1
     2    1   22 1
     3    1   23 1
     4    1   24 1
     5    2    3 1
     6    2    4 1
     7    2    6 1
     8    4    5 2
     9    4   34 1
    10    6    7 1
    11    6   25 1
    12    7    8 2
    13    7    9 2
    14    7   10 1
    15   10   15 ar
    16   10   11 ar
    17   11   12 ar
    18   11   26 1
    19   12   13 ar
    20   12   18 1
    21   13   14 ar
    22   13   27 1
    23   14   15 ar
    24   14   28 1
    25   15   16 1
    26   16   17 1
    27   17   29 1
    28   17   30 1
    29   17   31 1
    30   18   19 2
    31   18   32 1
    32   19   20 1
    33   19   33 1
    34   20   21 2
    35   20   35 1
@<TRIPOS>MOLECULE
ZINC37054899
   30    30     0     0     0
SMALL
USER_CHARGES

@<TRIPOS>ATOM
      1 C1          0.1812    1.6654   -0.5156 C.ar      1 <0>        -0.0741
      2 C2          1.4156    2.2757   -0.4419 C.ar      1 <0>        -0.1498
      3 C3          2.5612    1.5141   -0.2829 C.ar      1 <0>         0.0611
      4 C4          2.4740    0.1263   -0.1965 C.ar      1 <0>         0.1028
      5 C5          1.2395   -0.4952   -0.2694 C.ar      1 <0>        -0.1125
      6 C6          0.0833    0.2739   -0.4299 C.ar      1 <0>        -0.1115
      7 C7         -1.2350   -0.3808   -0.5085 C.2       1 <0>         0.5202
      8 O1         -2.2455    0.2940   -0.6489 O.co2     1 <0>        -0.6886
      9 O2         -1.3185   -1.5987   -0.4333 O.co2     1 <0>        -0.6691
     10 N1          3.6339   -0.6388   -0.0364 N.pl3     1 <0>        -1.0546
     11 S1          3.7541   -2.1222   -0.7626 S.o2      1 <0>         2.5975
     12 O3          5.0722   -2.5642   -0.4685 O.2       1 <0>        -0.9611
     13 O4          2.6254   -2.8476   -0.2944 O.2       1 <0>        -0.9351
     14 C8          3.5890   -1.7870   -2.5377 C.3       1 <0>        -0.6143
     15 C9          3.6858   -3.1007   -3.3160 C.3       1 <0>        -0.0844
     16 C10         3.5466   -2.8180   -4.8132 C.3       1 <0>        -0.1747
     17 C11         3.6419   -4.1120   -5.5797 C.2       1 <0>         0.4916
     18 O5          3.8060   -5.1629   -4.9838 O.co2     1 <0>        -0.6967
     19 O6          3.5549   -4.1079   -6.7958 O.co2     1 <0>        -0.7086
     20 F1          3.7673    2.1187   -0.2119 F         1 <0>        -0.1468
     21 H1         -0.7104    2.2631   -0.6351 H         1 <0>         0.1394
     22 H2          1.4892    3.3511   -0.5087 H         1 <0>         0.1312
     23 H3          1.1698   -1.5709   -0.2029 H         1 <0>         0.1781
     24 H4          4.3679   -0.3005    0.5000 H         1 <0>         0.4199
     25 H5          2.6230   -1.3205   -2.7311 H         1 <0>         0.1333
     26 H6          4.3868   -1.1162   -2.8565 H         1 <0>         0.1269
     27 H7          4.6518   -3.5672   -3.1226 H         1 <0>         0.0748
     28 H8          2.8880   -3.7716   -2.9972 H         1 <0>         0.0812
     29 H9          2.5806   -2.3515   -5.0065 H         1 <0>         0.0644
     30 H10         4.3443   -2.1472   -5.1320 H         1 <0>         0.0591
@<TRIPOS>BOND
     1    1    6 ar
     2    1    2 ar
     3    1   21 1
     4    2    3 ar
     5    2   22 1
     6    3    4 ar
     7    3   20 1
     8    4    5 ar
     9    4   10 1
    10    5    6 ar
    11    5   23 1
    12    6    7 1
    13    7    8 2
    14    7    9 1
    15   10   11 1
    16   10   24 1
    17   11   12 2
    18   11   13 2
    19   11   14 1
    20   14   15 1
    21   14   25 1
    22   14   26 1
    23   15   16 1
    24   15   27 1
    25   15   28 1
    26   16   17 1
    27   16   29 1
    28   16   30 1
    29   17   18 2
    30   17   19 1
@<TRIPOS>MOLECULE
ZINC40531578
   35    35     0     0     0
SMALL
USER_CHARGES

@<TRIPOS>ATOM
      1 C1         -0.0125    1.5293    0.0048 C.3       1 <0>        -0.1385
      2 C2          0.0039   -0.0005   -0.0021 C.3       1 <0>         0.0702
      3 H1         -1.0195   -0.3757    0.0032 H         1 <0>         0.0633
      4 C3          0.7256   -0.4992   -1.2593 C.3       1 <0>         0.1063
      5 N1          0.8931   -1.9571   -1.1508 N.am      1 <0>        -0.6417
      6 C4          1.4775   -2.4959    0.0876 C.3       1 <0>         0.0780
      7 C5          0.7192   -1.9000    1.2792 C.3       1 <0>         0.0509
      8 O1          0.6928   -0.4759    1.1570 O.3       1 <0>        -0.3832
      9 C6          0.5219   -2.7748   -2.1558 C.2       1 <0>         0.7073
     10 O2         -0.0458   -2.3210   -3.1306 O.2       1 <0>        -0.5949
     11 N2          0.7798   -4.0955   -2.0802 N.am      1 <0>        -0.6993
     12 C7          0.4755   -4.9675   -3.2174 C.3       1 <0>         0.0918
     13 H2          0.6534   -4.4273   -4.1473 H         1 <0>         0.0741
     14 C8          1.3743   -6.2046   -3.1663 C.3       1 <0>        -0.0821
     15 C9          2.8327   -5.7838   -3.3579 C.3       1 <0>        -0.1756
     16 C10         3.7179   -7.0024   -3.3075 C.2       1 <0>         0.4909
     17 O3          3.2277   -8.1052   -3.1344 O.co2     1 <0>        -0.6975
     18 O4          4.9243   -6.8854   -3.4398 O.co2     1 <0>        -0.7201
     19 C11        -0.9688   -5.3927   -3.1520 C.2       1 <0>         0.4982
     20 O5         -1.5818   -5.6292   -4.1790 O.co2     1 <0>        -0.7033
     21 O6         -1.5242   -5.5003   -2.0720 O.co2     1 <0>        -0.7011
     22 H3          1.0111    1.9038   -0.0005 H         1 <0>         0.0629
     23 H4         -0.5363    1.8910   -0.8800 H         1 <0>         0.0725
     24 H5         -0.5242    1.8832    0.8999 H         1 <0>         0.0618
     25 H6          0.1313   -0.2626   -2.1418 H         1 <0>         0.0992
     26 H7          1.7026   -0.0220   -1.3353 H         1 <0>         0.0644
     27 H8          1.3811   -3.5816    0.0969 H         1 <0>         0.0914
     28 H9          2.5303   -2.2198    0.1471 H         1 <0>         0.0720
     29 H10        -0.3013   -2.2828    1.2896 H         1 <0>         0.0579
     30 H11         1.2221   -2.1766    2.2059 H         1 <0>         0.1029
     31 H12         1.1670   -4.4686   -1.2729 H         1 <0>         0.3869
     32 H13         1.2618   -6.6957   -2.1997 H         1 <0>         0.0593
     33 H14         1.0880   -6.8948   -3.9599 H         1 <0>         0.0729
     34 H15         2.9452   -5.2927   -4.3245 H         1 <0>         0.0522
     35 H16         3.1190   -5.0937   -2.5642 H         1 <0>         0.0501
@<TRIPOS>BOND
     1    1    2 1
     2    1   22 1
     3    1   23 1
     4    1   24 1
     5    2    3 1
     6    2    8 1
     7    2    4 1
     8    4    5 1
     9    4   25 1
    10    4   26 1
    11    5    6 1
    12    5    9 am
    13    6    7 1
    14    6   27 1
    15    6   28 1
    16    7    8 1
    17    7   29 1
    18    7   30 1
    19    9   10 2
    20    9   11 am
    21   11   12 1
    22   11   31 1
    23   12   13 1
    24   12   14 1
    25   12   19 1
    26   14   15 1
    27   14   32 1
    28   14   33 1
    29   15   16 1
    30   15   34 1
    31   15   35 1
    32   16   17 2
    33   16   18 1
    34   19   20 2
    35   19   21 1
@<TRIPOS>MOLECULE
ZINC44936674
   28    29     0     0     0
SMALL
USER_CHARGES

@<TRIPOS>ATOM
      1 C1         -0.0212    1.4672    0.0074 C.3       1 <0>         0.0990
      2 C2          1.4256    1.9740   -0.0013 C.3       1 <0>         0.0394
      3 O1          2.1350    1.3541   -1.0766 O.3       1 <0>        -0.3506
      4 C3          2.2370   -0.0677   -0.9678 C.3       1 <0>         0.0143
      5 H1          2.7196   -0.3271   -0.0255 H         1 <0>         0.0552
      6 C4          0.8318   -0.6790   -1.0086 C.3       1 <0>         0.1030
      7 N1          0.0025   -0.0041    0.0023 N.am      1 <0>        -0.6340
      8 C5         -0.7147   -0.7126    0.8969 C.2       1 <0>         0.7125
      9 O2         -1.3185   -0.1392    1.7829 O.2       1 <0>        -0.6101
     10 N2         -0.7625   -2.0566    0.8094 N.am      1 <0>        -0.7321
     11 C6         -1.6276   -2.8192    1.7128 C.3       1 <0>         0.2596
     12 C7         -1.4980   -4.2898    1.4102 C.2       1 <0>         0.0332
     13 N3         -2.2232   -4.9856    0.5466 N.2       1 <0>        -0.3731
     14 N4         -1.8050   -6.2048    0.5798 N.2       1 <0>        -0.1978
     15 N5         -0.8448   -6.2958    1.4328 N.2       1 <0>        -0.1966
     16 N6         -0.6331   -5.1348    1.9522 N.2       1 <0>        -0.3708
     17 C8          3.0535   -0.6031   -2.1157 C.2       1 <0>         0.5086
     18 O3          3.5067    0.1615   -2.9503 O.co2     1 <0>        -0.6759
     19 O4          3.2610   -1.8008   -2.2098 O.co2     1 <0>        -0.6840
     20 H2         -0.5294    1.8231    0.9035 H         1 <0>         0.0943
     21 H3         -0.5422    1.8291   -0.8790 H         1 <0>         0.0662
     22 H4          1.4317    3.0556   -0.1367 H         1 <0>         0.0946
     23 H5          1.9053    1.7221    0.9445 H         1 <0>         0.0448
     24 H6          0.3966   -0.5333   -1.9973 H         1 <0>         0.0713
     25 H7          0.8884   -1.7444   -0.7853 H         1 <0>         0.0892
     26 H8         -0.2241   -2.5191    0.1482 H         1 <0>         0.4008
     27 H9         -1.3295   -2.6329    2.7446 H         1 <0>         0.0702
     28 H10        -2.6631   -2.5092    1.5722 H         1 <0>         0.0689
@<TRIPOS>BOND
     1    1    7 1
     2    1    2 1
     3    1   20 1
     4    1   21 1
     5    2    3 1
     6    2   22 1
     7    2   23 1
     8    3    4 1
     9    4    5 1
    10    4    6 1
    11    4   17 1
    12    6    7 1
    13    6   24 1
    14    6   25 1
    15    7    8 am
    16    8    9 2
    17    8   10 am
    18   10   11 1
    19   10   26 1
    20   11   12 1
    21   11   27 1
    22   11   28 1
    23   12   16 2
    24   12   13 1
    25   13   14 1
    26   14   15 2
    27   15   16 1
    28   17   18 2
    29   17   19 1
@<TRIPOS>MOLECULE
ZINC13637599
   37    39     0     0     0
SMALL
USER_CHARGES

@<TRIPOS>ATOM
      1 C1         -0.0184    1.5028    0.0103 C.3       1 <0>        -0.0828
      2 C2          0.0021   -0.0041    0.0020 C.2       1 <0>         0.3312
      3 C3         -1.2160   -0.6896    0.0043 C.2       1 <0>        -0.4155
      4 C4         -1.1654   -2.2086   -0.0042 C.3       1 <0>         0.1291
      5 H1         -1.7003   -2.5631   -0.8853 H         1 <0>         0.0401
      6 C5          0.2188   -2.8160   -0.0143 C.2       1 <0>        -0.3841
      7 C6          1.3292   -1.9452   -0.0151 C.2       1 <0>         0.4588
      8 N1          2.5589   -2.4721   -0.0240 N.2       1 <0>        -0.5556
      9 C7          2.7336   -3.7883   -0.0320 C.2       1 <0>         0.5293
     10 S1          4.3257   -4.4175   -0.0432 S.2       1 <0>        -0.7819
     11 N2          1.6927   -4.6407   -0.0310 N.pl3     1 <0>        -0.6168
     12 H2          1.8505   -5.5977   -0.0364 H         1 <0>         0.4050
     13 C8          0.4087   -4.1586   -0.0221 C.2       1 <0>         0.4755
     14 O1         -0.6454   -5.0041   -0.0216 O.3       1 <0>        -0.6704
     15 N3          1.1585   -0.6142   -0.0123 N.2       1 <0>        -0.6253
     16 C9         -1.8888   -2.7119    1.2183 C.ar      1 <0>        -0.0114
     17 C10        -1.4515   -2.3468    2.4781 C.ar      1 <0>        -0.0937
     18 C11        -2.1126   -2.8072    3.6003 C.ar      1 <0>        -0.1530
     19 C12        -3.2165   -3.6361    3.4624 C.ar      1 <0>         0.0626
     20 C13        -3.6535   -4.0006    2.1972 C.ar      1 <0>        -0.1516
     21 C14        -2.9920   -3.5334    1.0780 C.ar      1 <0>        -0.0636
     22 O2         -3.8683   -4.0907    4.5648 O.3       1 <0>        -0.5049
     23 C15        -2.4056   -0.0204    0.0142 C.2       1 <0>         0.4649
     24 O3         -2.4207    1.3277    0.0221 O.3       1 <0>        -0.6760
     25 O4         -3.5656   -0.7076    0.0162 O.3       1 <0>        -0.3363
     26 C16        -4.7727    0.0573    0.0267 C.3       1 <0>         0.0480
     27 H3          1.0042    1.8801    0.0026 H         1 <0>         0.0431
     28 H4         -0.5455    1.8639   -0.8728 H         1 <0>         0.0772
     29 H5         -0.5286    1.8543    0.9071 H         1 <0>         0.0766
     30 H6         -0.5922   -1.7014    2.5849 H         1 <0>         0.1119
     31 H7         -1.7703   -2.5223    4.5842 H         1 <0>         0.1108
     32 H8         -4.5125   -4.6459    2.0872 H         1 <0>         0.1103
     33 H9         -3.3345   -3.8133    0.0927 H         1 <0>         0.1139
     34 H10        -4.5856   -3.5148    4.8630 H         1 <0>         0.3711
     35 H11        -5.6296   -0.6164    0.0272 H         1 <0>         0.0754
     36 H12        -4.8000    0.6806    0.9205 H         1 <0>         0.0441
     37 H13        -4.8091    0.6909   -0.8594 H         1 <0>         0.0442
@<TRIPOS>BOND
     1    1    2 1
     2    1   27 1
     3    1   28 1
     4    1   29 1
     5    2   15 2
     6    2    3 1
     7    3    4 1
     8    3   23 2
     9    4    5 1
    10    4    6 1
    11    4   16 1
    12    6   13 2
    13    6    7 1
    14    7    8 2
    15    7   15 1
    16    8    9 1
    17    9   10 2
    18    9   11 1
    19   11   12 1
    20   11   13 1
    21   13   14 1
    22   16   21 ar
    23   16   17 ar
    24   17   18 ar
    25   17   30 1
    26   18   19 ar
    27   18   31 1
    28   19   20 ar
    29   19   22 1
    30   20   21 ar
    31   20   32 1
    32   21   33 1
    33   22   34 1
    34   23   24 1
    35   23   25 1
    36   25   26 1
    37   26   35 1
    38   26   36 1
    39   26   37 1
@<TRIPOS>MOLECULE
ZINC19479719
   31    32     0     0     0
SMALL
USER_CHARGES
1-(2,6-dihydroxypyridine-4-carbonyl)piperidine-4-carboxylic acid
@<TRIPOS>ATOM
      1 C1          3.7749    3.9494   -2.0152 C.2       1 <0>        -0.3038
      2 C2          3.1392    3.4739   -0.8654 C.2       1 <0>         0.0198
      3 C3          3.8223    3.5563    0.3507 C.2       1 <0>        -0.3318
      4 C4          5.1011    4.0940    0.3706 C.2       1 <0>         0.4656
      5 N1          5.6690    4.5336   -0.7401 N.am      1 <0>        -0.5820
      6 C5          5.0535    4.4773   -1.9093 C.2       1 <0>         0.4658
      7 O1          5.6804    4.9420   -3.0193 O.2       1 <0>        -0.6917
      8 O2          5.7777    4.1699    1.5442 O.3       1 <0>        -0.6916
      9 C6          1.7760    2.8972   -0.9339 C.2       1 <0>         0.5625
     10 O3          0.9378    3.4029   -1.6537 O.2       1 <0>        -0.5490
     11 N2          1.4658    1.8117   -0.1977 N.am      1 <0>        -0.5981
     12 C7          0.0875    1.3043   -0.1562 C.3       1 <0>         0.1097
     13 C8          0.0978   -0.1818   -0.5276 C.3       1 <0>        -0.1068
     14 C9          1.0695   -0.9264    0.3906 C.3       1 <0>        -0.1281
     15 C10         2.4826   -0.3707    0.1988 C.3       1 <0>        -0.1100
     16 C11         2.4994    1.1133    0.5786 C.3       1 <0>         0.0925
     17 C12         1.0569   -2.3944    0.0505 C.2       1 <0>         0.4669
     18 O4          0.3440   -2.8032   -0.8353 O.co2     1 <0>        -0.6442
     19 O5          1.8376   -3.2479    0.7316 O.co2     1 <0>        -0.7755
     20 H1          3.3082    3.9064   -2.8986 H         1 <0>         0.1201
     21 H2          3.4020    3.2343    1.1991 H         1 <0>         0.1241
     22 H3          6.6820    4.9612   -0.7079 H         1 <0>         0.4227
     23 H4         -0.3200    1.4325    0.8575 H         1 <0>         0.0608
     24 H5         -0.5310    1.8638   -0.8734 H         1 <0>         0.0865
     25 H6         -0.9137   -0.5968   -0.4072 H         1 <0>         0.0697
     26 H7          0.4189   -0.2961   -1.5735 H         1 <0>         0.0648
     27 H8          0.7596   -0.8052    1.4391 H         1 <0>         0.0683
     28 H9          3.1841   -0.9230    0.8413 H         1 <0>         0.0811
     29 H10         2.7818   -0.4848   -0.8535 H         1 <0>         0.0588
     30 H11         3.4846    1.5457    0.3497 H         1 <0>         0.1071
     31 H12         2.2901    1.2259    1.6526 H         1 <0>         0.0659
@<TRIPOS>BOND
     1    1    2 2
     2    1   20 1
     3    1    6 1
     4    2    3 1
     5    2    9 1
     6    3    4 2
     7    3   21 1
     8    4    5 1
     9    4    8 1
    10    5   22 1
    11    5    6 am
    12    6    7 2
    13    9   10 2
    14    9   11 am
    15   11   16 1
    16   11   12 1
    17   12   13 1
    18   12   23 1
    19   12   24 1
    20   13   14 1
    21   13   25 1
    22   13   26 1
    23   14   15 1
    24   14   17 1
    25   14   27 1
    26   15   16 1
    27   15   28 1
    28   15   29 1
    29   16   30 1
    30   16   31 1
    31   17   18 2
    32   17   19 1
@<TRIPOS>MOLECULE
ZINC16606353
   36    37     0     0     0
SMALL
USER_CHARGES

@<TRIPOS>ATOM
      1 C1          1.3345    1.7867    0.0215 C.3       1 <0>        -0.1157
      2 C2          0.5936    0.4744    0.0129 C.2       1 <0>        -0.0655
      3 C3         -0.3494    0.2249   -0.9189 C.2       1 <0>        -0.1560
      4 C4         -1.0780   -1.0500   -0.9382 C.2       1 <0>         0.3245
      5 O1         -2.0128   -1.2525   -1.8918 O.3       1 <0>        -0.6838
      6 C5         -0.8415   -2.0418   -0.0220 C.2       1 <0>        -0.3994
      7 C6          0.1163   -1.8809    0.9851 C.2       1 <0>         0.4212
      8 O2          0.3193   -2.7656    1.7939 O.2       1 <0>        -0.5340
      9 C7          0.8986   -0.5880    1.0447 C.3       1 <0>        -0.1549
     10 H1          0.7360   -0.1506    2.0298 H         1 <0>         0.1927
     11 C8          2.3631   -0.9265    0.9360 C.2       1 <0>         0.0902
     12 C9          3.1258   -0.9951    2.0506 C.2       1 <0>        -0.2888
     13 C10         2.5548   -0.7633    3.3952 C.2       1 <0>         0.5159
     14 O3          1.2468   -0.4750    3.5498 O.3       1 <0>        -0.5986
     15 N1          3.3565   -0.8459    4.4394 N.2       1 <0>        -0.6794
     16 C11         4.6530   -1.1294    4.3183 C.2       1 <0>         0.6726
     17 O4          5.3246   -1.1875    5.3324 O.2       1 <0>        -0.6060
     18 N2          5.2607   -1.3548    3.1447 N.am      1 <0>        -0.6981
     19 C12         4.5733   -1.3125    1.9829 C.2       1 <0>         0.5725
     20 O5          5.1225   -1.5224    0.9187 O.2       1 <0>        -0.5411
     21 C13        -1.6262   -3.3259   -0.1005 C.3       1 <0>        -0.0720
     22 C14        -0.8396   -4.3485   -0.8794 C.2       1 <0>         0.5040
     23 O6          0.2566   -4.0611   -1.3291 O.co2     1 <0>        -0.6986
     24 O7         -1.2995   -5.4632   -1.0598 O.co2     1 <0>        -0.7539
     25 C15        -0.6548    1.2517   -1.9367 C.2       1 <0>         0.5752
     26 O8         -1.8069    1.4590   -2.2644 O.2       1 <0>        -0.5265
     27 N3          0.3441    1.9583   -2.5018 N.am      1 <0>        -0.8685
     28 H2          2.1767    1.7329   -0.6683 H         1 <0>         0.0656
     29 H3          0.6613    2.5860   -0.2884 H         1 <0>         0.0664
     30 H4          1.7013    1.9902    1.0276 H         1 <0>         0.0688
     31 H5          2.8035   -1.1143   -0.0321 H         1 <0>         0.1217
     32 H6          6.2095   -1.5558    3.1301 H         1 <0>         0.3910
     33 H7         -1.8121   -3.7003    0.9062 H         1 <0>         0.0310
     34 H8         -2.5769   -3.1408   -0.6006 H         1 <0>         0.0457
     35 H9          1.2675    1.7169   -2.3283 H         1 <0>         0.3971
     36 H10         0.1397    2.7083   -3.0820 H         1 <0>         0.3847
@<TRIPOS>BOND
     1    1    2 1
     2    1   28 1
     3    1   29 1
     4    1   30 1
     5    2    9 1
     6    2    3 2
     7    3    4 1
     8    3   25 1
     9    4    5 1
    10    4    6 2
    11    6    7 1
    12    6   21 1
    13    7    8 2
    14    7    9 1
    15    9   10 1
    16    9   11 1
    17   11   12 2
    18   11   31 1
    19   12   19 1
    20   12   13 1
    21   13   14 1
    22   13   15 2
    23   15   16 1
    24   16   17 2
    25   16   18 am
    26   18   19 am
    27   18   32 1
    28   19   20 2
    29   21   22 1
    30   21   33 1
    31   21   34 1
    32   22   23 2
    33   22   24 1
    34   25   26 2
    35   25   27 am
    36   27   35 1
    37   27   36 1
@<TRIPOS>MOLECULE
ZINC13235749
   32    32     0     0     0
SMALL
USER_CHARGES

@<TRIPOS>ATOM
      1 C1         -0.0187    1.5258    0.0104 C.3       1 <0>        -0.1407
      2 C2          0.0021   -0.0041    0.0020 C.3       1 <0>        -0.1064
      3 H1         -1.0205   -0.3814    0.0098 H         1 <0>         0.1216
      4 C3          0.7309   -0.5033    1.2229 C.2       1 <0>         0.5432
      5 O1          1.9105   -0.7753    1.1557 O.2       1 <0>        -0.4485
      6 N1          0.0715   -0.6474    2.3895 N.am      1 <0>        -0.6862
      7 C4          0.7234   -1.0938    3.4814 C.2       1 <0>         0.6980
      8 O2          1.9059   -1.3665    3.4140 O.2       1 <0>        -0.5354
      9 N2          0.0639   -1.2379    4.6479 N.am      1 <0>        -0.8599
     10 S1          0.8511   -0.5891   -1.4904 S.3       1 <0>         0.0235
     11 C5         -0.1893   -0.0568   -2.8091 C.ar      1 <0>         0.2539
     12 N3          0.1498   -0.3290   -4.0634 N.ar      1 <0>        -0.5762
     13 C6         -0.6385    0.0749   -5.0536 C.ar      1 <0>         0.4214
     14 O3         -0.3179   -0.1891   -6.3436 O.3       1 <0>        -0.6581
     15 C7         -1.8034    0.7759   -4.7391 C.ar      1 <0>        -0.0380
     16 N4         -2.0882    1.0170   -3.4731 N.ar      1 <0>        -0.2058
     17 N5         -1.3061    0.6073   -2.5367 N.ar      1 <0>        -0.4074
     18 C8         -2.7251    1.2525   -5.8320 C.3       1 <0>        -0.0105
     19 C9         -3.7654    0.1708   -6.1295 C.3       1 <0>        -0.1653
     20 C10        -4.6871    0.6473   -7.2225 C.2       1 <0>         0.4976
     21 O4         -4.5267    1.7499   -7.7175 O.co2     1 <0>        -0.7014
     22 O5         -5.5931   -0.0697   -7.6116 O.co2     1 <0>        -0.7190
     23 H2          1.0039    1.9031    0.0027 H         1 <0>         0.0652
     24 H3         -0.5459    1.8868   -0.8726 H         1 <0>         0.1019
     25 H4         -0.5289    1.8773    0.9072 H         1 <0>         0.0589
     26 H5         -0.8722   -0.4298    2.4432 H         1 <0>         0.4127
     27 H6         -0.8798   -1.0203    4.7017 H         1 <0>         0.3995
     28 H7          0.5331   -1.5593    5.4338 H         1 <0>         0.4172
     29 H8         -3.2298    2.1634   -5.5101 H         1 <0>         0.0617
     30 H9         -2.1457    1.4569   -6.7324 H         1 <0>         0.0769
     31 H10        -3.2606   -0.7401   -6.4514 H         1 <0>         0.0561
     32 H11        -4.3447   -0.0336   -5.2291 H         1 <0>         0.0497
@<TRIPOS>BOND
     1    1    2 1
     2    1   23 1
     3    1   24 1
     4    1   25 1
     5    2    3 1
     6    2    4 1
     7    2   10 1
     8    4    5 2
     9    4    6 am
    10    6    7 am
    11    6   26 1
    12    7    8 2
    13    7    9 am
    14    9   27 1
    15    9   28 1
    16   10   11 1
    17   11   12 ar
    18   11   17 ar
    19   12   13 ar
    20   13   14 1
    21   13   15 ar
    22   15   16 ar
    23   15   18 1
    24   16   17 ar
    25   18   19 1
    26   18   29 1
    27   18   30 1
    28   19   20 1
    29   19   31 1
    30   19   32 1
    31   20   21 2
    32   20   22 1
@<TRIPOS>MOLECULE
ZINC43433187
   44    44     0     0     0
SMALL
USER_CHARGES

@<TRIPOS>ATOM
      1 C1         -0.0187    1.5258    0.0104 C.3       1 <0>        -0.1447
      2 C2          0.0021   -0.0041    0.0020 C.3       1 <0>        -0.0974
      3 C3          0.7421   -0.5109    1.2415 C.3       1 <0>        -0.1402
      4 C4         -1.4333   -0.5336    0.0129 C.3       1 <0>        -0.1003
      5 C5         -2.1352   -0.1312   -1.2857 C.3       1 <0>         0.0816
      6 H1         -2.0716    0.9494   -1.4133 H         1 <0>         0.0814
      7 C6         -3.5829   -0.5453   -1.2234 C.2       1 <0>         0.4934
      8 O1         -4.4175    0.2215   -0.7740 O.co2     1 <0>        -0.7073
      9 O2         -3.9194   -1.6472   -1.6223 O.co2     1 <0>        -0.6986
     10 N1         -1.4855   -0.7957   -2.4182 N.am      1 <0>        -0.7129
     11 C7         -1.5595   -0.2542   -3.6501 C.2       1 <0>         0.5285
     12 O3         -2.1639    0.7833   -3.8212 O.2       1 <0>        -0.5175
     13 C8         -0.8911   -0.9377   -4.8151 C.3       1 <0>        -0.1040
     14 C9         -1.1257   -0.1220   -6.0880 C.3       1 <0>        -0.1059
     15 C10        -2.6284   -0.0130   -6.3543 C.3       1 <0>        -0.1021
     16 C11        -3.2180   -1.4138   -6.5304 C.3       1 <0>        -0.1213
     17 C12        -2.5395   -2.1078   -7.7131 C.3       1 <0>        -0.1110
     18 C13        -1.0368   -2.2168   -7.4468 C.3       1 <0>        -0.1186
     19 C14        -0.4472   -0.8159   -7.2708 C.3       1 <0>        -0.0899
     20 C15        -0.5450    1.2578   -5.9146 C.2       1 <0>         0.5173
     21 O4          0.0055    1.5606   -4.8698 O.co2     1 <0>        -0.6859
     22 O5         -0.6256    2.0713   -6.8192 O.co2     1 <0>        -0.7172
     23 H2          1.0039    1.9031    0.0027 H         1 <0>         0.0438
     24 H3         -0.5459    1.8868   -0.8726 H         1 <0>         0.0674
     25 H4         -0.5289    1.8773    0.9072 H         1 <0>         0.0462
     26 H5          0.5123   -0.3556   -0.8948 H         1 <0>         0.0716
     27 H6          0.2319   -0.1594    2.1383 H         1 <0>         0.0483
     28 H7          0.7568   -1.6008    1.2356 H         1 <0>         0.0482
     29 H8          1.7647   -0.1336    1.2338 H         1 <0>         0.0460
     30 H9         -1.4190   -1.6203    0.0965 H         1 <0>         0.0570
     31 H10        -1.9701   -0.1109    0.8621 H         1 <0>         0.0657
     32 H11        -1.0021   -1.6255   -2.2814 H         1 <0>         0.3800
     33 H12         0.1794   -1.0153   -4.6254 H         1 <0>         0.0728
     34 H13        -1.3112   -1.9357   -4.9405 H         1 <0>         0.0677
     35 H14        -3.1118    0.4814   -5.5117 H         1 <0>         0.0856
     36 H15        -2.7955    0.5681   -7.2612 H         1 <0>         0.0510
     37 H16        -3.0509   -1.9950   -5.6235 H         1 <0>         0.0601
     38 H17        -4.2886   -1.3362   -6.7201 H         1 <0>         0.0484
     39 H18        -2.9595   -3.1058   -7.8385 H         1 <0>         0.0461
     40 H19        -2.7066   -1.5267   -8.6200 H         1 <0>         0.0539
     41 H20        -0.8697   -2.7979   -6.5399 H         1 <0>         0.0587
     42 H21        -0.5534   -2.7112   -8.2894 H         1 <0>         0.0461
     43 H22        -0.6143   -0.2348   -8.1777 H         1 <0>         0.0612
     44 H23         0.6234   -0.8935   -7.0811 H         1 <0>         0.0466
@<TRIPOS>BOND
     1    1    2 1
     2    1   23 1
     3    1   24 1
     4    1   25 1
     5    2    3 1
     6    2    4 1
     7    2   26 1
     8    3   27 1
     9    3   28 1
    10    3   29 1
    11    4    5 1
    12    4   30 1
    13    4   31 1
    14    5    6 1
    15    5    7 1
    16    5   10 1
    17    7    8 2
    18    7    9 1
    19   10   11 am
    20   10   32 1
    21   11   12 2
    22   11   13 1
    23   13   14 1
    24   13   33 1
    25   13   34 1
    26   14   19 1
    27   14   15 1
    28   14   20 1
    29   15   16 1
    30   15   35 1
    31   15   36 1
    32   16   17 1
    33   16   37 1
    34   16   38 1
    35   17   18 1
    36   17   39 1
    37   17   40 1
    38   18   19 1
    39   18   41 1
    40   18   42 1
    41   19   43 1
    42   19   44 1
    43   20   21 2
    44   20   22 1
@<TRIPOS>MOLECULE
ZINC17378783
   24    25     0     0     0
SMALL
USER_CHARGES

@<TRIPOS>ATOM
      1 C1         -0.0184    1.5028    0.0103 C.3       1 <0>        -0.0906
      2 C2          0.0021   -0.0041    0.0020 C.ar      1 <0>         0.0722
      3 C3          0.0057   -0.6899   -1.2166 C.ar      1 <0>         0.3818
      4 O1         -0.0097    0.0052   -2.3822 O.3       1 <0>        -0.6734
      5 N1          0.0244   -2.0108   -1.2396 N.ar      1 <0>        -0.5033
      6 C4          0.0394   -2.6858   -0.0957 C.ar      1 <0>         0.0189
      7 C5          0.0353   -1.9965    1.1366 C.ar      1 <0>         0.1816
      8 N2          0.0503   -2.7027    2.2836 N.2       1 <0>        -0.5256
      9 C6          0.0685   -4.0122    2.2865 C.2       1 <0>         0.5728
     10 N3          0.0738   -4.7591    1.1455 N.am      1 <0>        -0.6608
     11 C7          0.0600   -4.1578   -0.0666 C.2       1 <0>         0.5703
     12 O2          0.0641   -4.8094   -1.0946 O.2       1 <0>        -0.5127
     13 N4          0.0835   -4.6629    3.4937 N.pl3     1 <0>        -0.8434
     14 N5          0.0218   -0.6622    1.1424 N.ar      1 <0>        -0.4105
     15 C8          1.3954    2.0244   -0.0004 C.2       1 <0>         0.3130
     16 O3          2.3239    1.2522   -0.0134 O.2       1 <0>        -0.4561
     17 C9          1.6484    3.4963    0.0051 C.2       1 <0>         0.4749
     18 O4          2.7934    3.9188   -0.0036 O.co2     1 <0>        -0.6674
     19 O5          0.7101    4.2767    0.0182 O.co2     1 <0>        -0.6727
     20 H1         -0.5455    1.8639   -0.8728 H         1 <0>         0.1139
     21 H2          0.0804   -4.1537    4.3193 H         1 <0>         0.4187
     22 H3          0.0971   -5.6324    3.5220 H         1 <0>         0.4006
     23 H4         -0.5286    1.8543    0.9071 H         1 <0>         0.0972
     24 H5          0.0876   -5.7273    1.2032 H         1 <0>         0.4003
@<TRIPOS>BOND
     1    1    2 1
     2    1   15 1
     3    1   20 1
     4    1   23 1
     5    2   14 ar
     6    2    3 ar
     7    3    4 1
     8    3    5 ar
     9    5    6 ar
    10    6   11 1
    11    6    7 ar
    12    7    8 1
    13    7   14 ar
    14    8    9 2
    15    9   10 1
    16    9   13 1
    17   10   11 am
    18   10   24 1
    19   11   12 2
    20   13   21 1
    21   13   22 1
    22   15   16 2
    23   15   17 1
    24   17   18 2
    25   17   19 1
@<TRIPOS>MOLECULE
ZINC19480767
   27    28     0     0     0
SMALL
USER_CHARGES
2-[(2,6-dioxo3H-pyrimidine-4-carbonyl)amino]-5-fluoro-benzoic acid
@<TRIPOS>ATOM
      1 C1          1.0573    2.3135    0.8610 C.ar      1 <0>        -0.1373
      2 C2         -0.0366    1.4715    0.8542 C.ar      1 <0>        -0.1119
      3 C3         -1.0891    1.7045   -0.0206 C.ar      1 <0>         0.1853
      4 C4         -1.0408    2.8061   -0.8893 C.ar      1 <0>        -0.1185
      5 C5          0.0722    3.6504   -0.8722 C.ar      1 <0>        -0.0939
      6 C6          1.1121    3.4001    0.0003 C.ar      1 <0>         0.0480
      7 F1          2.1878    4.2173    0.0166 F         1 <0>        -0.1544
      8 C7         -2.1549    3.0671   -1.8182 C.2       1 <0>         0.4951
      9 O1         -3.1073    2.3132   -1.8517 O.co2     1 <0>        -0.6120
     10 O2         -2.1174    4.1418   -2.6303 O.co2     1 <0>        -0.7545
     11 N1         -2.1900    0.8529   -0.0323 N.am      1 <0>        -0.6576
     12 C8         -2.0106   -0.4814    0.0315 C.2       1 <0>         0.5714
     13 O3         -0.8969   -0.9372    0.1991 O.2       1 <0>        -0.5222
     14 C9         -3.1721   -1.3928   -0.1028 C.2       1 <0>         0.1933
     15 C10        -4.4212   -0.8894   -0.2848 C.2       1 <0>        -0.3780
     16 C11        -5.5401   -1.8295   -0.4172 C.2       1 <0>         0.5474
     17 O4         -6.6743   -1.4222   -0.5854 O.2       1 <0>        -0.5924
     18 N2         -5.2900   -3.1533   -0.3440 N.am      1 <0>        -0.6936
     19 H1         -6.1150   -3.8749   -0.4370 H         1 <0>         0.4055
     20 C12        -4.0356   -3.6000   -0.1576 C.2       1 <0>         0.6423
     21 O5         -3.8372   -4.7980   -0.0956 O.3       1 <0>        -0.6174
     22 N3         -2.9957   -2.7581   -0.0386 N.2       1 <0>        -0.6357
     23 H2          1.8756    2.1249    1.5401 H         1 <0>         0.1271
     24 H3         -0.0716    0.6276    1.5273 H         1 <0>         0.1385
     25 H4          0.1190    4.4972   -1.5408 H         1 <0>         0.1419
     26 H5         -3.2065    1.2688   -0.0936 H         1 <0>         0.4500
     27 H6         -4.5859    0.1768   -0.3341 H         1 <0>         0.1335
@<TRIPOS>BOND
     1    1    6 ar
     2    1    2 ar
     3    1   23 1
     4    2    3 ar
     5    2   24 1
     6    3    4 ar
     7    3   11 1
     8    4    5 ar
     9    4    8 1
    10    5    6 ar
    11    5   25 1
    12    6    7 1
    13    8    9 2
    14    8   10 1
    15   11   12 am
    16   11   26 1
    17   12   13 2
    18   12   14 1
    19   14   22 1
    20   14   15 2
    21   15   16 1
    22   15   27 1
    23   16   17 2
    24   16   18 am
    25   18   19 1
    26   18   20 1
    27   20   21 1
    28   20   22 2
@<TRIPOS>MOLECULE
ZINC36123795
   27    28     0     0     0
SMALL
USER_CHARGES

@<TRIPOS>ATOM
      1 C1         -0.0521    1.3794    0.4145 C.ar      1 <0>        -0.0161
      2 C2          1.1162    2.1046    0.4702 C.ar      1 <0>        -0.1663
      3 C3          2.3319    1.4924    0.1861 C.ar      1 <0>         0.1449
      4 C4          2.3754    0.1453   -0.1552 C.ar      1 <0>        -0.2298
      5 C5          1.2138   -0.5905   -0.2137 C.ar      1 <0>        -0.0584
      6 C6         -0.0147    0.0210    0.0711 C.ar      1 <0>        -0.1185
      7 C7         -1.2556   -0.7571    0.0105 C.2       1 <0>        -0.0280
      8 C8         -2.4054   -0.1813   -0.4786 C.2       1 <0>        -0.0131
      9 C9         -2.5300    1.1299   -1.1415 C.2       1 <0>         0.5045
     10 O1         -1.6396    1.9279   -1.3703 O.2       1 <0>        -0.4975
     11 N1         -3.8411    1.2587   -1.4414 N.am      1 <0>        -0.6828
     12 C10        -4.4962    0.1332   -1.0102 C.2       1 <0>         0.4980
     13 S1         -6.2272   -0.1430   -1.1883 S.3       1 <0>        -0.7918
     14 N2         -3.6657   -0.7100   -0.4550 N.2       1 <0>        -0.5504
     15 O2          3.4810    2.2132    0.2418 O.3       1 <0>        -0.2835
     16 C11         4.6950    1.5231   -0.0615 C.3       1 <0>        -0.0057
     17 C12         5.8565    2.4767    0.0509 C.2       1 <0>         0.5019
     18 O3          5.6626    3.6395    0.3620 O.co2     1 <0>        -0.6725
     19 O4          6.9900    2.0853   -0.1691 O.co2     1 <0>        -0.6936
     20 H1         -0.9954    1.8549    0.6393 H         1 <0>         0.1214
     21 H2          1.0887    3.1513    0.7347 H         1 <0>         0.1257
     22 H3          3.3226   -0.3247   -0.3751 H         1 <0>         0.1249
     23 H4          1.2488   -1.6368   -0.4793 H         1 <0>         0.1205
     24 H5         -1.2672   -1.7824    0.3497 H         1 <0>         0.1340
     25 H6         -4.2497    2.0180   -1.8858 H         1 <0>         0.4160
     26 H7          4.8307    0.7007    0.6409 H         1 <0>         0.0581
     27 H8          4.6452    1.1293   -1.0767 H         1 <0>         0.0581
@<TRIPOS>BOND
     1    1    6 ar
     2    1    2 ar
     3    1   20 1
     4    2    3 ar
     5    2   21 1
     6    3    4 ar
     7    3   15 1
     8    4    5 ar
     9    4   22 1
    10    5    6 ar
    11    5   23 1
    12    6    7 1
    13    7    8 2
    14    7   24 1
    15    8   14 1
    16    8    9 1
    17    9   10 2
    18    9   11 am
    19   11   12 1
    20   11   25 1
    21   12   13 1
    22   12   14 2
    23   15   16 1
    24   16   17 1
    25   16   26 1
    26   16   27 1
    27   17   18 2
    28   17   19 1
@<TRIPOS>MOLECULE
ZINC16688974
   34    35     0     0     0
SMALL
USER_CHARGES

@<TRIPOS>ATOM
      1 C1          0.0581    1.5267   -0.0360 C.3       1 <0>        -0.1492
      2 C2          0.0599   -0.0033   -0.0330 C.3       1 <0>         0.0541
      3 O1          0.7359   -0.4766    1.1336 O.3       1 <0>        -0.3011
      4 C3          0.8268   -1.8244    1.2905 C.ar      1 <0>         0.0729
      5 C4          0.2836   -2.6674    0.3418 C.ar      1 <0>        -0.1580
      6 C5          0.3793   -4.0558    0.5070 C.ar      1 <0>        -0.0829
      7 C6          1.0261   -4.5794    1.6346 C.ar      1 <0>        -0.0792
      8 C7          1.5646   -3.7297    2.5750 C.ar      1 <0>        -0.1950
      9 C8          1.4737   -2.3540    2.4067 C.ar      1 <0>         0.1204
     10 O2          2.0120   -1.5215    3.3355 O.3       1 <0>        -0.2730
     11 C9          2.6603   -2.1301    4.4541 C.3       1 <0>        -0.0083
     12 C10         3.1915   -1.0584    5.3709 C.2       1 <0>         0.5036
     13 O3          3.0300    0.1174    5.0921 O.co2     1 <0>        -0.6735
     14 O4          3.7829   -1.3673    6.3913 O.co2     1 <0>        -0.6936
     15 C11        -0.1955   -4.9572   -0.4959 C.2       1 <0>        -0.0236
     16 C12         0.0063   -6.3146   -0.3970 C.2       1 <0>        -0.0189
     17 C13        -0.3999   -7.3464   -1.3690 C.2       1 <0>         0.5147
     18 O5         -0.9820   -7.1764   -2.4247 O.2       1 <0>        -0.5253
     19 N1          0.0109   -8.5202   -0.8411 N.am      1 <0>        -0.6792
     20 C14         0.6240   -8.2638    0.3590 C.2       1 <0>         0.4943
     21 S1          1.3195   -9.4976    1.4072 S.3       1 <0>        -0.7779
     22 N2          0.6295   -6.9828    0.6195 N.2       1 <0>        -0.5401
     23 H1          1.0853    1.8912   -0.0384 H         1 <0>         0.0653
     24 H2         -0.4576    1.8877   -0.9259 H         1 <0>         0.0692
     25 H3         -0.4547    1.8912    0.8541 H         1 <0>         0.0653
     26 H4         -0.9674   -0.3678   -0.0306 H         1 <0>         0.0545
     27 H5          0.5726   -0.3678   -0.9231 H         1 <0>         0.0545
     28 H6         -0.2140   -2.2582   -0.5250 H         1 <0>         0.1266
     29 H7          1.1019   -5.6487    1.7662 H         1 <0>         0.1857
     30 H8          2.0625   -4.1341    3.4439 H         1 <0>         0.1339
     31 H9          1.9454   -2.7497    4.9955 H         1 <0>         0.0592
     32 H10         3.4854   -2.7497    4.1030 H         1 <0>         0.0595
     33 H11        -0.7773   -4.5558   -1.3124 H         1 <0>         0.1291
     34 H12        -0.1077   -9.3954   -1.2422 H         1 <0>         0.4160
@<TRIPOS>BOND
     1    1    2 1
     2    1   23 1
     3    1   24 1
     4    1   25 1
     5    2    3 1
     6    2   26 1
     7    2   27 1
     8    3    4 1
     9    4    9 ar
    10    4    5 ar
    11    5    6 ar
    12    5   28 1
    13    6    7 ar
    14    6   15 1
    15    7    8 ar
    16    7   29 1
    17    8    9 ar
    18    8   30 1
    19    9   10 1
    20   10   11 1
    21   11   12 1
    22   11   31 1
    23   11   32 1
    24   12   13 2
    25   12   14 1
    26   15   16 2
    27   15   33 1
    28   16   22 1
    29   16   17 1
    30   17   18 2
    31   17   19 am
    32   19   20 1
    33   19   34 1
    34   20   21 1
    35   20   22 2
@<TRIPOS>MOLECULE
ZINC44929948
   31    32     0     0     0
SMALL
USER_CHARGES

@<TRIPOS>ATOM
      1 C1         -0.0187    1.5277    0.0104 C.3       1 <0>        -0.1368
      2 C2          1.4185    2.0534   -0.0005 C.3       1 <0>        -0.0888
      3 C3          2.1487    1.5734    1.2559 C.3       1 <0>        -0.1695
      4 H1          1.6189    1.9249    2.1413 H         1 <0>         0.0713
      5 C4          2.1940    0.0421    1.2616 C.3       1 <0>         0.1518
      6 N1          0.8243   -0.4720    1.1261 N.pl3     1 <0>        -1.0059
      7 C5          0.0021   -0.0041    0.0020 C.3       1 <0>         0.1242
      8 S1          0.2191   -1.5588    2.2193 S.o2      1 <0>         2.7898
      9 O1         -0.8224   -2.2634    1.5573 O.2       1 <0>        -0.9901
     10 O2          1.3369   -2.2183    2.7979 O.2       1 <0>        -0.9858
     11 N2         -0.4959   -0.6868    3.4320 N.pl3     1 <0>        -1.1164
     12 C6         -1.6755    0.1338    3.1468 C.3       1 <0>         0.2402
     13 C7         -2.3439    0.5198    4.4412 C.2       1 <0>         0.0443
     14 N3         -3.2893   -0.1586    5.0751 N.2       1 <0>        -0.3754
     15 N4         -3.5947    0.5011    6.1400 N.2       1 <0>        -0.2014
     16 N5         -2.8743    1.5669    6.1942 N.2       1 <0>        -0.1986
     17 N6         -2.0952    1.5998    5.1674 N.2       1 <0>        -0.3697
     18 C8          3.5535    2.1188    1.2607 C.2       1 <0>         0.5016
     19 O3          3.7396    3.3238    1.2546 O.co2     1 <0>        -0.7013
     20 O4          4.5039    1.3552    1.2706 O.co2     1 <0>        -0.6999
     21 H2         -0.5281    1.8797    0.9075 H         1 <0>         0.0681
     22 H3         -0.5451    1.8893   -0.8729 H         1 <0>         0.0653
     23 H4          1.9348    1.6808   -0.8852 H         1 <0>         0.0516
     24 H5          1.4064    3.1432   -0.0193 H         1 <0>         0.0646
     25 H6          2.8003   -0.3086    0.4265 H         1 <0>         0.0709
     26 H7          2.6242   -0.3072    2.2002 H         1 <0>         0.0837
     27 H8         -1.0139   -0.3839    0.1095 H         1 <0>         0.0816
     28 H9          0.4296   -0.3586   -0.9359 H         1 <0>         0.0658
     29 H10        -0.1336   -0.7193    4.3312 H         1 <0>         0.4156
     30 H11        -1.3714    1.0339    2.6124 H         1 <0>         0.0705
     31 H12        -2.3738   -0.4348    2.5327 H         1 <0>         0.0787
@<TRIPOS>BOND
     1    1    7 1
     2    1    2 1
     3    1   21 1
     4    1   22 1
     5    2    3 1
     6    2   23 1
     7    2   24 1
     8    3    4 1
     9    3    5 1
    10    3   18 1
    11    5    6 1
    12    5   25 1
    13    5   26 1
    14    6    7 1
    15    6    8 1
    16    7   27 1
    17    7   28 1
    18    8    9 2
    19    8   10 2
    20    8   11 1
    21   11   12 1
    22   11   29 1
    23   12   13 1
    24   12   30 1
    25   12   31 1
    26   13   17 2
    27   13   14 1
    28   14   15 1
    29   15   16 2
    30   16   17 1
    31   18   19 2
    32   18   20 1
@<TRIPOS>MOLECULE
ZINC62218914
   30    31     0     0     0
SMALL
USER_CHARGES

@<TRIPOS>ATOM
      1 C1         -0.0173    1.4248    0.0099 C.3       1 <0>         0.0361
      2 O1          0.0021   -0.0041    0.0020 O.3       1 <0>        -0.3363
      3 C2         -1.1911   -0.6326    0.0100 C.2       1 <0>         0.5733
      4 O2         -2.2199    0.0158    0.0233 O.2       1 <0>        -0.5304
      5 C3         -1.2479   -2.0976    0.0027 C.2       1 <0>        -0.1871
      6 C4         -2.4039   -2.8702    0.0040 C.2       1 <0>         0.4191
      7 N1         -1.9945   -4.1690   -0.0054 N.pl3     1 <0>        -0.3280
      8 N2         -0.5931   -4.1518   -0.0122 N.2       1 <0>        -0.0514
      9 N3         -0.1897   -2.9304   -0.0123 N.2       1 <0>        -0.1680
     10 C5         -2.8171   -5.3054   -0.0075 C.ar      1 <0>         0.0747
     11 C6         -4.0190   -5.2900    0.6836 C.ar      1 <0>        -0.1005
     12 C7         -4.8417   -6.4197    0.6838 C.ar      1 <0>        -0.1356
     13 C8         -4.4523   -7.5634   -0.0122 C.ar      1 <0>        -0.0303
     14 C9         -3.2428   -7.5747   -0.7059 C.ar      1 <0>        -0.1378
     15 C10        -2.4286   -6.4388   -0.7052 C.ar      1 <0>        -0.0609
     16 C11        -2.8257   -8.7823   -1.4443 C.2       1 <0>         0.5278
     17 O3         -3.5410   -9.7742   -1.4481 O.co2     1 <0>        -0.6821
     18 O4         -1.7647   -8.7913   -2.0524 O.co2     1 <0>        -0.6919
     19 C12        -6.1205   -6.4024    1.4201 C.2       1 <0>         0.5284
     20 O5         -6.4610   -5.3990    2.0306 O.co2     1 <0>        -0.6965
     21 O6         -6.8397   -7.3914    1.4197 O.co2     1 <0>        -0.6790
     22 N4         -3.7048   -2.4128    0.0130 N.pl3     1 <0>        -0.8101
     23 H1          1.0053    1.8021    0.0021 H         1 <0>         0.0987
     24 H2         -0.5445    1.7859   -0.8732 H         1 <0>         0.0578
     25 H3         -0.5275    1.7763    0.9067 H         1 <0>         0.0580
     26 H4         -4.3197   -4.4038    1.2228 H         1 <0>         0.1271
     27 H5         -5.0856   -8.4383   -0.0138 H         1 <0>         0.1427
     28 H6         -1.4937   -6.4451   -1.2459 H         1 <0>         0.1361
     29 H7         -3.8836   -1.4594    0.0190 H         1 <0>         0.4276
     30 H8         -4.4410   -3.0444    0.0134 H         1 <0>         0.4186
@<TRIPOS>BOND
     1    1    2 1
     2    1   23 1
     3    1   24 1
     4    1   25 1
     5    2    3 1
     6    3    4 2
     7    3    5 1
     8    5    9 1
     9    5    6 2
    10    6    7 1
    11    6   22 1
    12    7    8 1
    13    7   10 1
    14    8    9 2
    15   10   15 ar
    16   10   11 ar
    17   11   12 ar
    18   11   26 1
    19   12   13 ar
    20   12   19 1
    21   13   14 ar
    22   13   27 1
    23   14   15 ar
    24   14   16 1
    25   15   28 1
    26   16   17 2
    27   16   18 1
    28   19   20 2
    29   19   21 1
    30   22   29 1
    31   22   30 1
@<TRIPOS>MOLECULE
ZINC06007835
   31    32     0     0     0
SMALL
USER_CHARGES
4-[[3-(1-carboxyethyl)-4-oxo-2-thioxo-thiazolidin-5-ylidene]methyl]benzoic acid
@<TRIPOS>ATOM
      1 C1          0.6081    4.9847    1.8085 C.3       1 <0>        -0.1560
      2 C2          1.0129    4.2351    0.5376 C.3       1 <0>         0.0616
      3 H1          0.5199    4.6868   -0.3232 H         1 <0>         0.1152
      4 C3          0.5988    2.7907    0.6529 C.2       1 <0>         0.4764
      5 O1          1.4317    1.9172    0.5971 O.co2     1 <0>        -0.6131
      6 N1          2.4656    4.3144    0.3656 N.am      1 <0>        -0.4940
      7 C4          2.9569    4.8787   -0.7249 C.2       1 <0>         0.5314
      8 O2          2.2344    5.3350   -1.5906 O.2       1 <0>        -0.4452
      9 C5          4.4331    4.9264   -0.8365 C.2       1 <0>        -0.2328
     10 C6          5.2096    5.4357   -1.8251 C.2       1 <0>         0.0861
     11 C7          4.5969    5.8866   -3.0820 C.ar      1 <0>        -0.1125
     12 C8          3.5391    5.1620   -3.6455 C.ar      1 <0>        -0.0555
     13 C9          2.9668    5.5852   -4.8112 C.ar      1 <0>        -0.0867
     14 C10         3.4442    6.7348   -5.4480 C.ar      1 <0>        -0.0855
     15 C11         4.5037    7.4562   -4.8892 C.ar      1 <0>        -0.1049
     16 C12         5.0738    7.0383   -3.7206 C.ar      1 <0>        -0.0982
     17 C13         2.8289    7.1876   -6.7111 C.2       1 <0>         0.4877
     18 O3          3.2430    8.1867   -7.2646 O.co2     1 <0>        -0.6341
     19 S1          4.9096    4.1281    0.6904 S.3       1 <0>         0.0030
     20 C14         3.2704    3.8153    1.3253 C.2       1 <0>         0.3151
     21 S2          2.8273    3.0607    2.7968 S.2       1 <0>        -0.3252
     22 H2          1.1011    4.5330    2.6693 H         1 <0>         0.0885
     23 H3          0.9076    6.0295    1.7251 H         1 <0>         0.0427
     24 H4         -0.4727    4.9257    1.9365 H         1 <0>         0.0842
     25 H5          6.2784    5.5097   -1.6884 H         1 <0>         0.1508
     26 H6          3.1731    4.2715   -3.1562 H         1 <0>         0.1181
     27 H7          2.1482    5.0291   -5.2437 H         1 <0>         0.1332
     28 H8          4.8715    8.3440   -5.3820 H         1 <0>         0.1287
     29 H9          5.8919    7.5958   -3.2889 H         1 <0>         0.1204
     30 O4         -0.6953    2.4746    0.8176 O.co2     1 <0>        -0.7495
     31 O5          1.8079    6.4929   -7.2501 O.co2     1 <0>        -0.7499
@<TRIPOS>BOND
     1    1    2 1
     2    1   22 1
     3    1   23 1
     4    1   24 1
     5    2    3 1
     6    2    4 1
     7    2    6 1
     8    4    5 2
     9    4   30 1
    10    6   20 1
    11    6    7 am
    12    7    8 2
    13    7    9 1
    14    9   10 2
    15    9   19 1
    16   10   11 1
    17   10   25 1
    18   11   16 ar
    19   11   12 ar
    20   12   13 ar
    21   12   26 1
    22   13   14 ar
    23   13   27 1
    24   14   15 ar
    25   14   17 1
    26   15   16 ar
    27   15   28 1
    28   16   29 1
    29   17   18 2
    30   17   31 1
    31   19   20 1
    32   20   21 2
@<TRIPOS>MOLECULE
ZINC19823969
   39    40     0     0     0
SMALL
USER_CHARGES
(2R)-2-[4-[(E)-(1-allyl-4,6-dioxo-2-thioxo-hexahydropyrimidin-5-ylidene)methyl]phenoxy]propanoic acid
@<TRIPOS>ATOM
      1 C1         -7.8313    0.2909    0.8068 C.3       1 <0>        -0.1561
      2 C2         -7.1640    0.0271   -0.5445 C.3       1 <0>         0.0377
      3 H1         -6.8652    0.9626   -1.0400 H         1 <0>         0.0743
      4 C3         -8.1032   -0.7573   -1.4240 C.2       1 <0>         0.4748
      5 O1         -7.8165   -1.8810   -1.7631 O.co2     1 <0>        -0.6146
      6 O2         -9.2583   -0.2077   -1.8306 O.co2     1 <0>        -0.7587
      7 O3         -5.9626   -0.7204   -0.3446 O.3       1 <0>        -0.2874
      8 C4         -4.8389   -0.0157   -0.0606 C.ar      1 <0>         0.1723
      9 C5         -4.9143    1.3604    0.1323 C.ar      1 <0>        -0.2400
     10 C6         -3.7867    2.0755    0.4185 C.ar      1 <0>        -0.0399
     11 C7         -2.5501    1.4196    0.5183 C.ar      1 <0>        -0.1563
     12 C8         -2.4801    0.0325    0.3178 C.ar      1 <0>         0.0275
     13 C9         -3.6157   -0.6720    0.0370 C.ar      1 <0>        -0.1745
     14 C10        -1.3382    2.1797    0.8240 C.2       1 <0>         0.0900
     15 C11        -0.4353    1.6964    1.7511 C.2       1 <0>        -0.3067
     16 C12        -0.7585    0.5421    2.6133 C.2       1 <0>         0.5263
     17 O4         -1.8371   -0.0147    2.5339 O.3       1 <0>        -0.4948
     18 N1          0.1752    0.1224    3.4918 N.2       1 <0>        -0.6268
     19 C13         1.3672    0.7271    3.5903 C.2       1 <0>         0.5485
     20 S1          2.4884    0.1245    4.7353 S.2       1 <0>        -0.7217
     21 N2          1.7290    1.7781    2.8416 N.am      1 <0>        -0.5420
     22 C14         0.8984    2.3072    1.9197 C.2       1 <0>         0.5641
     23 O5          1.2387    3.2611    1.2459 O.2       1 <0>        -0.5241
     24 C15         3.0577    2.3662    3.0287 C.3       1 <0>         0.1196
     25 C16         4.0414    1.6868    2.1112 C.2       1 <0>        -0.1434
     26 C17         4.7607    2.3986    1.2793 C.2       1 <0>        -0.1973
     27 H2         -7.1457    0.8635    1.4487 H         1 <0>         0.0539
     28 H3         -8.0719   -0.6674    1.2902 H         1 <0>         0.0614
     29 H4         -8.7561    0.8663    0.6529 H         1 <0>         0.0761
     30 H5         -5.8666    1.8640    0.0552 H         1 <0>         0.1305
     31 H6         -3.8464    3.1435    0.5673 H         1 <0>         0.1202
     32 H7         -1.5307   -0.4774    0.3893 H         1 <0>         0.1203
     33 H8         -3.5637   -1.7402   -0.1138 H         1 <0>         0.1289
     34 H9         -1.1458    3.1361    0.3157 H         1 <0>         0.1385
     35 H10         3.0195    3.4403    2.7947 H         1 <0>         0.0833
     36 H11         3.3755    2.2295    4.0729 H         1 <0>         0.1275
     37 H12         4.1554    0.5931    2.1401 H         1 <0>         0.1169
     38 H13         5.4787    1.9026    0.6096 H         1 <0>         0.0958
     39 H14         4.6467    3.4923    1.2504 H         1 <0>         0.0960
@<TRIPOS>BOND
     1    1    2 1
     2    1   27 1
     3    1   28 1
     4    1   29 1
     5    2    3 1
     6    2    4 1
     7    2    7 1
     8    4    5 2
     9    4    6 1
    10    7    8 1
    11    8   13 ar
    12    8    9 ar
    13    9   10 ar
    14    9   30 1
    15   10   11 ar
    16   10   31 1
    17   11   12 ar
    18   11   14 1
    19   12   13 ar
    20   12   32 1
    21   13   33 1
    22   14   15 2
    23   14   34 1
    24   15   22 1
    25   15   16 1
    26   16   17 1
    27   16   18 2
    28   18   19 1
    29   19   20 2
    30   19   21 1
    31   21   22 am
    32   21   24 1
    33   22   23 2
    34   24   25 1
    35   24   35 1
    36   24   36 1
    37   25   26 2
    38   25   37 1
    39   26   38 1
    40   26   39 1
@<TRIPOS>MOLECULE
ZINC28294916
   33    36     0     0     0
SMALL
USER_CHARGES

@<TRIPOS>ATOM
      1 C1         -0.0163    1.3513    0.0095 C.2       1 <0>        -0.1537
      2 C2          1.1833    2.0380    0.0017 C.2       1 <0>        -0.1298
      3 C3          2.3426    1.3358   -0.0131 C.2       1 <0>        -0.1536
      4 S1          1.7535   -0.3495   -0.0166 S.3       1 <0>         0.0601
      5 C4          0.0021   -0.0041    0.0020 C.2       1 <0>        -0.1687
      6 C5          3.7608    1.8454   -0.0244 C.3       1 <0>         0.0924
      7 H1          3.7270    2.9349   -0.0185 H         1 <0>         0.1124
      8 C6          4.3953    1.4117   -1.2876 C.2       1 <0>        -0.2055
      9 C7          5.6450    0.9626   -1.5093 C.2       1 <0>         0.0959
     10 N1          5.9467    0.6815   -2.8196 N.am      1 <0>        -0.6350
     11 H2          6.8369    0.3799   -3.0596 H         1 <0>         0.4135
     12 C8          5.0043    0.8252   -3.7698 C.2       1 <0>         0.4729
     13 O1          5.0985    0.6135   -4.9661 O.2       1 <0>        -0.4657
     14 S2          3.6659    1.3673   -2.9087 S.3       1 <0>         0.0857
     15 S3          6.7679    0.7357   -0.1530 S.3       1 <0>         0.0557
     16 C9          5.9663    1.5444    1.2240 C.3       1 <0>        -0.1484
     17 H3          6.3626    1.1088    2.1412 H         1 <0>         0.1776
     18 C10         4.4411    1.3845    1.2623 C.3       1 <0>        -0.0930
     19 H4          4.1142    0.3988    1.5931 H         1 <0>         0.1518
     20 C11         4.1468    2.5357    2.2509 C.2       1 <0>         0.5358
     21 O2          3.2325    2.5919    3.0450 O.2       1 <0>        -0.4449
     22 N2          5.1049    3.4658    2.0583 N.am      1 <0>        -0.5451
     23 C12         6.1445    3.0293    1.3184 C.2       1 <0>         0.5508
     24 O3          7.0393    3.6947    0.8429 O.2       1 <0>        -0.4517
     25 C13         5.0165    4.8280    2.5903 C.3       1 <0>         0.0275
     26 C14         5.6359    4.8723    3.9634 C.2       1 <0>         0.4891
     27 O4          6.1075    3.8598    4.4523 O.co2     1 <0>        -0.6833
     28 O5          5.6654    5.9205    4.5853 O.co2     1 <0>        -0.6856
     29 H5         -0.9542    1.8866    0.0258 H         1 <0>         0.1355
     30 H6          1.1967    3.1179    0.0070 H         1 <0>         0.1341
     31 H7         -0.8275   -0.6955    0.0065 H         1 <0>         0.1863
     32 H8          5.5493    5.5115    1.9291 H         1 <0>         0.0953
     33 H9          3.9700    5.1259    2.6540 H         1 <0>         0.0914
@<TRIPOS>BOND
     1    1    5 2
     2    1    2 1
     3    1   29 1
     4    2    3 2
     5    2   30 1
     6    3    4 1
     7    3    6 1
     8    4    5 1
     9    5   31 1
    10    6    7 1
    11    6   18 1
    12    6    8 1
    13    8   14 1
    14    8    9 2
    15    9   10 1
    16    9   15 1
    17   10   11 1
    18   10   12 am
    19   12   13 2
    20   12   14 1
    21   15   16 1
    22   16   17 1
    23   16   23 1
    24   16   18 1
    25   18   19 1
    26   18   20 1
    27   20   21 2
    28   20   22 am
    29   22   23 am
    30   22   25 1
    31   23   24 2
    32   25   26 1
    33   25   32 1
    34   25   33 1
    35   26   27 2
    36   26   28 1
@<TRIPOS>MOLECULE
ZINC13235677
   37    38     0     0     0
SMALL
USER_CHARGES

@<TRIPOS>ATOM
      1 C1          0.1094    1.1694   -0.7354 C.ar      1 <0>        -0.0697
      2 C2          1.2920    1.8726   -0.7463 C.ar      1 <0>        -0.1637
      3 C3          2.3808    1.4182   -0.0077 C.ar      1 <0>         0.1382
      4 C4          2.2779    0.2518    0.7449 C.ar      1 <0>        -0.1361
      5 C5          1.0985   -0.4567    0.7613 C.ar      1 <0>        -0.0670
      6 C6          0.0019   -0.0035    0.0198 C.ar      1 <0>        -0.1529
      7 C7         -1.2619   -0.7587    0.0346 C.2       1 <0>         0.5233
      8 O1         -2.2198   -0.3608   -0.6140 O.co2     1 <0>        -0.6955
      9 O2         -1.3541   -1.7841    0.6955 O.co2     1 <0>        -0.6920
     10 N1          3.5769    2.1326   -0.0220 N.am      1 <0>        -0.6678
     11 C8          4.7528    1.4798    0.0645 C.2       1 <0>         0.5317
     12 O3          4.7751    0.2672    0.0584 O.2       1 <0>        -0.5020
     13 C9          6.0400    2.2565    0.1689 C.3       1 <0>        -0.1419
     14 S1          7.4361    1.1026    0.2692 S.3       1 <0>         0.0299
     15 C10         8.8478    2.1506    0.3850 C.ar      1 <0>         0.2511
     16 N2         10.0584    1.6133    0.4750 N.ar      1 <0>        -0.5762
     17 C11        11.1192    2.4084    0.5621 C.ar      1 <0>         0.4213
     18 O4         12.3671    1.8880    0.6546 O.3       1 <0>        -0.6650
     19 C12        10.9231    3.7901    0.5559 C.ar      1 <0>        -0.0454
     20 N3          9.6956    4.2661    0.4642 N.ar      1 <0>        -0.2055
     21 N4          8.6892    3.4687    0.3759 N.ar      1 <0>        -0.4086
     22 C13        12.0990    4.7275    0.6533 C.3       1 <0>        -0.0085
     23 C14        12.6086    5.0541   -0.7519 C.3       1 <0>        -0.1655
     24 C15        13.7845    5.9915   -0.6545 C.2       1 <0>         0.4983
     25 O5         14.1785    6.3639    0.4375 O.co2     1 <0>        -0.7024
     26 O6         14.3419    6.3776   -1.6678 O.co2     1 <0>        -0.7208
     27 H1         -0.7363    1.5248   -1.3055 H         1 <0>         0.1269
     28 H2          1.3757    2.7780   -1.3290 H         1 <0>         0.1171
     29 H3          3.1250   -0.0977    1.3164 H         1 <0>         0.1293
     30 H4          1.0196   -1.3618    1.3452 H         1 <0>         0.1276
     31 H5          3.5633    3.0998   -0.0943 H         1 <0>         0.4092
     32 H6          6.1546    2.8898   -0.7107 H         1 <0>         0.1198
     33 H7          6.0175    2.8783    1.0639 H         1 <0>         0.1207
     34 H8         11.7905    5.6470    1.1508 H         1 <0>         0.0602
     35 H9         12.8951    4.2533    1.2273 H         1 <0>         0.0756
     36 H10        12.9171    4.1347   -1.2494 H         1 <0>         0.0562
     37 H11        11.8125    5.5283   -1.3260 H         1 <0>         0.0500
@<TRIPOS>BOND
     1    1    6 ar
     2    1    2 ar
     3    1   27 1
     4    2    3 ar
     5    2   28 1
     6    3    4 ar
     7    3   10 1
     8    4    5 ar
     9    4   29 1
    10    5    6 ar
    11    5   30 1
    12    6    7 1
    13    7    8 2
    14    7    9 1
    15   10   11 am
    16   10   31 1
    17   11   12 2
    18   11   13 1
    19   13   14 1
    20   13   32 1
    21   13   33 1
    22   14   15 1
    23   15   16 ar
    24   15   21 ar
    25   16   17 ar
    26   17   18 1
    27   17   19 ar
    28   19   20 ar
    29   19   22 1
    30   20   21 ar
    31   22   23 1
    32   22   34 1
    33   22   35 1
    34   23   24 1
    35   23   36 1
    36   23   37 1
    37   24   25 2
    38   24   26 1
@<TRIPOS>MOLECULE
ZINC57984407
   38    38     0     0     0
SMALL
USER_CHARGES

@<TRIPOS>ATOM
      1 C1         -0.2009    1.9295   -0.4784 C.3       1 <0>         0.0272
      2 O1         -0.0268    0.5114   -0.4520 O.3       1 <0>        -0.3107
      3 C2         -1.1467   -0.2454   -0.3016 C.ar      1 <0>         0.1385
      4 C3         -2.3811    0.3641   -0.1883 C.ar      1 <0>        -0.2353
      5 C4         -3.5336   -0.4160   -0.0335 C.ar      1 <0>         0.0531
      6 C5         -3.4297   -1.8118    0.0060 C.ar      1 <0>        -0.2247
      7 C6         -2.1918   -2.4140   -0.1079 C.ar      1 <0>         0.1554
      8 C7         -1.0481   -1.6346   -0.2676 C.ar      1 <0>         0.0033
      9 O2          0.1672   -2.2308   -0.3853 O.3       1 <0>        -0.3109
     10 C8          0.8901   -2.4744    0.8230 C.3       1 <0>         0.0355
     11 O3         -2.0899   -3.7696   -0.0697 O.3       1 <0>        -0.3110
     12 C9         -3.3103   -4.5104   -0.0077 C.3       1 <0>         0.0174
     13 C10        -4.8477    0.2282    0.0878 C.2       1 <0>        -0.1591
     14 C11        -5.8855   -0.2046   -0.6656 C.2       1 <0>        -0.1068
     15 C12        -5.7404   -1.4474   -1.5054 C.3       1 <0>        -0.0622
     16 C13        -6.3470   -2.6391   -0.7618 C.3       1 <0>        -0.1720
     17 C14        -6.1214   -3.8971   -1.5603 C.2       1 <0>         0.4968
     18 O4         -5.5302   -3.8454   -2.6253 O.co2     1 <0>        -0.6955
     19 O5         -6.5300   -4.9666   -1.1412 O.co2     1 <0>        -0.7157
     20 C15        -7.1055    0.5092   -0.6646 C.2       1 <0>         0.5107
     21 O6         -7.2235    1.5197    0.0182 O.co2     1 <0>        -0.7065
     22 O7         -8.0451    0.1175   -1.3466 O.co2     1 <0>        -0.6844
     23 H1          0.7684    2.4122   -0.6031 H         1 <0>         0.0926
     24 H2         -0.8513    2.2003   -1.3102 H         1 <0>         0.0564
     25 H3         -0.6525    2.2576    0.4577 H         1 <0>         0.0535
     26 H4         -2.4572    1.4410   -0.2188 H         1 <0>         0.1314
     27 H5         -4.3163   -2.4168    0.1257 H         1 <0>         0.1562
     28 H6          0.3053   -3.1272    1.4710 H         1 <0>         0.0405
     29 H7          1.8407   -2.9532    0.5876 H         1 <0>         0.0815
     30 H8          1.0759   -1.5287    1.3322 H         1 <0>         0.0371
     31 H9         -3.0862   -5.5705    0.1110 H         1 <0>         0.0946
     32 H10        -3.9013   -4.1667    0.8412 H         1 <0>         0.0516
     33 H11        -3.8743   -4.3591   -0.9281 H         1 <0>         0.0887
     34 H12        -4.9860    1.0472    0.7781 H         1 <0>         0.1280
     35 H13        -6.2599   -1.3080   -2.4534 H         1 <0>         0.0683
     36 H14        -4.6837   -1.6368   -1.6945 H         1 <0>         0.0635
     37 H15        -5.8722   -2.7382    0.2143 H         1 <0>         0.0461
     38 H16        -7.4172   -2.4790   -0.6307 H         1 <0>         0.0671
@<TRIPOS>BOND
     1    1    2 1
     2    1   23 1
     3    1   24 1
     4    1   25 1
     5    2    3 1
     6    3    8 ar
     7    3    4 ar
     8    4    5 ar
     9    4   26 1
    10    5    6 ar
    11    5   13 1
    12    6    7 ar
    13    6   27 1
    14    7    8 ar
    15    7   11 1
    16    8    9 1
    17    9   10 1
    18   10   28 1
    19   10   29 1
    20   10   30 1
    21   11   12 1
    22   12   31 1
    23   12   32 1
    24   12   33 1
    25   13   14 2
    26   13   34 1
    27   14   15 1
    28   14   20 1
    29   15   16 1
    30   15   35 1
    31   15   36 1
    32   16   17 1
    33   16   37 1
    34   16   38 1
    35   17   18 2
    36   17   19 1
    37   20   21 2
    38   20   22 1
@<TRIPOS>MOLECULE
ZINC08791089
   73    73     0     0     0
SMALL
USER_CHARGES
4-amino-2-[4-[(3-methyl-2-tert-butoxycarbonylamino-pentanoyl)aminomethyl]cyclohexyl]carbonylamino-4-oxo-butanoic acid
@<TRIPOS>ATOM
      1 C1          1.3807    0.8550    2.0992 C.3       1 <0>        -0.1451
      2 C2         -0.0558    0.9258    2.6211 C.3       1 <0>        -0.1149
      3 C3         -0.9713    1.4694    1.5224 C.3       1 <0>        -0.0993
      4 H1         -0.8529    0.8687    0.6206 H         1 <0>         0.0851
      5 C4         -2.4261    1.4034    1.9918 C.3       1 <0>        -0.1492
      6 C5         -0.5984    2.9221    1.2201 C.3       1 <0>         0.1485
      7 H2          0.4682    2.9861    1.0047 H         1 <0>         0.1176
      8 C6         -1.3818    3.4039    0.0264 C.2       1 <0>         0.5131
      9 O1         -2.3578    4.1063    0.1848 O.2       1 <0>        -0.5326
     10 N1         -0.9980    3.0543   -1.2174 N.am      1 <0>        -0.7205
     11 C7         -1.6883    3.6147   -2.3817 C.3       1 <0>         0.1240
     12 C8         -1.0618    3.0591   -3.6622 C.3       1 <0>        -0.1007
     13 H3         -1.0766    1.9696   -3.6309 H         1 <0>         0.0800
     14 C9          0.3841    3.5464   -3.7756 C.3       1 <0>        -0.1119
     15 C10         1.0106    2.9908   -5.0561 C.3       1 <0>        -0.1055
     16 C11         0.2121    3.4771   -6.2672 C.3       1 <0>        -0.1039
     17 H4          0.2269    4.5666   -6.2985 H         1 <0>         0.0928
     18 C12        -1.2338    2.9898   -6.1538 C.3       1 <0>        -0.0964
     19 C13        -1.8603    3.5454   -4.8733 C.3       1 <0>        -0.1091
     20 C14         0.8292    2.9299   -7.5285 C.2       1 <0>         0.5262
     21 O2          0.1767    2.2200   -8.2642 O.2       1 <0>        -0.5475
     22 N2          2.1061    3.2293   -7.8388 N.am      1 <0>        -0.6916
     23 C15         2.7059    2.6973   -9.0649 C.3       1 <0>         0.1199
     24 H5          2.3163    1.6974   -9.2559 H         1 <0>         0.0950
     25 C16         4.2257    2.6298   -8.9015 C.3       1 <0>        -0.1347
     26 C17         4.5713    1.6344   -7.8241 C.2       1 <0>         0.5138
     27 O3          3.6890    1.0377   -7.2441 O.2       1 <0>        -0.5326
     28 N3          5.8609    1.4072   -7.5051 N.am      1 <0>        -0.8630
     29 C18         2.3649    3.5990  -10.2233 C.2       1 <0>         0.4585
     30 O4          1.6899    4.5848  -10.0431 O.co2     1 <0>        -0.6246
     31 N4         -0.9132    3.7587    2.3808 N.am      1 <0>        -0.6926
     32 C19        -0.0251    3.8758    3.3878 C.2       1 <0>         0.6537
     33 O5          1.0367    3.2875    3.3330 O.2       1 <0>        -0.5569
     34 O6         -0.3144    4.6447    4.4546 O.3       1 <0>        -0.3632
     35 C20         0.6889    4.7243    5.5012 C.3       1 <0>         0.1381
     36 C21         1.9853    5.2949    4.9227 C.3       1 <0>        -0.1838
     37 C22         0.1856    5.6365    6.6217 C.3       1 <0>        -0.1421
     38 C23         0.9529    3.3256    6.0621 C.3       1 <0>        -0.1837
     39 H6          1.7091    1.8511    1.8027 H         1 <0>         0.0683
     40 H7          2.0344    0.4757    2.8847 H         1 <0>         0.0500
     41 H8          1.4220    0.1876    1.2384 H         1 <0>         0.0437
     42 H9         -0.3871   -0.0717    2.9096 H         1 <0>         0.0571
     43 H10        -0.0955    1.5865    3.4871 H         1 <0>         0.0722
     44 H11        -2.5445    2.0041    2.8936 H         1 <0>         0.0580
     45 H12        -3.0783    1.7907    1.2090 H         1 <0>         0.0584
     46 H13        -2.6918    0.3684    2.2071 H         1 <0>         0.0592
     47 H14        -0.2647    2.4316   -1.3416 H         1 <0>         0.4036
     48 H15        -2.7429    3.3416   -2.3451 H         1 <0>         0.0713
     49 H16        -1.5936    4.7005   -2.3724 H         1 <0>         0.0707
     50 H17         0.3990    4.6358   -3.8069 H         1 <0>         0.0669
     51 H18         0.9530    3.1999   -2.9128 H         1 <0>         0.0612
     52 H19         0.9958    1.9013   -5.0248 H         1 <0>         0.0696
     53 H20         2.0407    3.3379   -5.1369 H         1 <0>         0.0658
     54 H21        -1.2487    1.9004   -6.1225 H         1 <0>         0.0694
     55 H22        -1.8027    3.3363   -7.0166 H         1 <0>         0.0732
     56 H23        -2.8904    3.1983   -4.7925 H         1 <0>         0.0673
     57 H24        -1.8455    4.6349   -4.9046 H         1 <0>         0.0664
     58 H25         2.6279    3.7971   -7.2504 H         1 <0>         0.3864
     59 H26         4.6789    2.3186   -9.8427 H         1 <0>         0.1167
     60 H27         4.6052    3.6129   -8.6231 H         1 <0>         0.0918
     61 H28         6.5666    1.8844   -7.9689 H         1 <0>         0.3997
     62 H29         6.0834    0.7665   -6.8116 H         1 <0>         0.3948
     63 H30        -1.7607    4.2284    2.4246 H         1 <0>         0.4151
     64 H31         1.7972    6.2914    4.5231 H         1 <0>         0.0590
     65 H32         2.7384    5.3547    5.7084 H         1 <0>         0.0696
     66 H33         2.3438    4.6450    4.1244 H         1 <0>         0.0892
     67 H34        -0.7380    5.2301    7.0339 H         1 <0>         0.0662
     68 H35         0.9387    5.6963    7.4074 H         1 <0>         0.0803
     69 H36        -0.0025    6.6330    6.2221 H         1 <0>         0.0667
     70 H37         1.3114    2.6757    5.2639 H         1 <0>         0.0900
     71 H38         1.7060    3.3854    6.8479 H         1 <0>         0.0694
     72 H39         0.0293    2.9191    6.4743 H         1 <0>         0.0584
     73 O7          2.8109    3.3069  -11.4551 O.co2     1 <0>        -0.7667
@<TRIPOS>BOND
     1    1    2 1
     2    1   39 1
     3    1   40 1
     4    1   41 1
     5    2    3 1
     6    2   42 1
     7    2   43 1
     8    3    4 1
     9    3    5 1
    10    3    6 1
    11    5   44 1
    12    5   45 1
    13    5   46 1
    14    6    7 1
    15    6    8 1
    16    6   31 1
    17    8    9 2
    18    8   10 am
    19   10   11 1
    20   10   47 1
    21   11   12 1
    22   11   48 1
    23   11   49 1
    24   12   13 1
    25   12   19 1
    26   12   14 1
    27   14   15 1
    28   14   50 1
    29   14   51 1
    30   15   16 1
    31   15   52 1
    32   15   53 1
    33   16   17 1
    34   16   18 1
    35   16   20 1
    36   18   19 1
    37   18   54 1
    38   18   55 1
    39   19   56 1
    40   19   57 1
    41   20   21 2
    42   20   22 am
    43   22   23 1
    44   22   58 1
    45   23   24 1
    46   23   25 1
    47   23   29 1
    48   25   26 1
    49   25   59 1
    50   25   60 1
    51   26   27 2
    52   26   28 am
    53   28   61 1
    54   28   62 1
    55   29   30 2
    56   29   73 1
    57   31   32 am
    58   31   63 1
    59   32   33 2
    60   32   34 1
    61   34   35 1
    62   35   36 1
    63   35   37 1
    64   35   38 1
    65   36   64 1
    66   36   65 1
    67   36   66 1
    68   37   67 1
    69   37   68 1
    70   37   69 1
    71   38   70 1
    72   38   71 1
    73   38   72 1
@<TRIPOS>MOLECULE
ZINC13223848
   64    66     0     0     0
SMALL
USER_CHARGES
6-[4-oxo-2-[2-oxo-2-[[(1R)-1-phenylbutyl]amino]ethyl]sulfanyl-quinazolin-3-yl]hexanoic acid
@<TRIPOS>ATOM
      1 C1         -7.6944   -3.3398   -3.3787 C.3       1 <0>        -0.1525
      2 C2         -7.2425   -3.0562   -1.9447 C.3       1 <0>        -0.1200
      3 C3         -8.0784   -1.9144   -1.3630 C.3       1 <0>        -0.1235
      4 C4         -7.6265   -1.6307    0.0710 C.3       1 <0>         0.1869
      5 H1         -7.6776   -2.5488    0.6564 H         1 <0>         0.1014
      6 C5         -8.5287   -0.5920    0.6859 C.ar      1 <0>        -0.0922
      7 C6         -8.3348    0.7470    0.4023 C.ar      1 <0>        -0.1148
      8 C7         -9.1652    1.6995    0.9629 C.ar      1 <0>        -0.1162
      9 C8        -10.1834    1.3137    1.8145 C.ar      1 <0>        -0.1187
     10 C9        -10.3742   -0.0249    2.1019 C.ar      1 <0>        -0.1148
     11 C10        -9.5466   -0.9777    1.5379 C.ar      1 <0>        -0.1055
     12 N1         -6.2479   -1.1351    0.0596 N.am      1 <0>        -0.7174
     13 C11        -5.2190   -2.0054    0.0448 C.2       1 <0>         0.5322
     14 O1         -5.4343   -3.1989    0.0409 O.2       1 <0>        -0.5112
     15 C12        -3.8009   -1.4955    0.0330 C.3       1 <0>        -0.1558
     16 S1         -2.6559   -2.8972    0.0143 S.3       1 <0>         0.0945
     17 C13        -1.1185   -2.0363    0.0031 C.2       1 <0>         0.3600
     18 N2         -1.1363   -0.7262    0.0095 N.2       1 <0>        -0.5432
     19 C14         0.0021   -0.0041    0.0020 C.ar      1 <0>         0.1743
     20 C15        -0.0169    1.3939    0.0097 C.ar      1 <0>        -0.1180
     21 C16         1.1610    2.0862    0.0022 C.ar      1 <0>        -0.0706
     22 C17         2.3806    1.4216   -0.0131 C.ar      1 <0>        -0.1465
     23 C18         2.4318    0.0550   -0.0209 C.ar      1 <0>        -0.0356
     24 C19         1.2452   -0.6768   -0.0135 C.ar      1 <0>        -0.2035
     25 C20         1.2390   -2.1459   -0.0208 C.2       1 <0>         0.5519
     26 O2          2.2770   -2.7817   -0.0337 O.2       1 <0>        -0.4999
     27 N3          0.0360   -2.7658   -0.0122 N.am      1 <0>        -0.5238
     28 C21        -0.0283   -4.2294   -0.0190 C.3       1 <0>         0.0868
     29 C22        -0.0367   -4.7461    1.4211 C.3       1 <0>        -0.1336
     30 C23        -0.1038   -6.2746    1.4141 C.3       1 <0>        -0.1143
     31 C24        -0.1122   -6.7914    2.8541 C.3       1 <0>        -0.0969
     32 C25        -0.1793   -8.3199    2.8471 C.3       1 <0>        -0.1576
     33 C26        -0.1876   -8.8289    4.2655 C.2       1 <0>         0.4574
     34 O3         -0.1442   -8.0491    5.1874 O.co2     1 <0>        -0.6424
     35 H2         -7.0989   -4.1532   -3.7931 H         1 <0>         0.0546
     36 H3         -8.7468   -3.6234   -3.3786 H         1 <0>         0.0512
     37 H4         -7.5594   -2.4447   -3.9859 H         1 <0>         0.0488
     38 H5         -6.1900   -2.7725   -1.9448 H         1 <0>         0.0638
     39 H6         -7.3775   -3.9512   -1.3375 H         1 <0>         0.0703
     40 H7         -9.1308   -2.1980   -1.3629 H         1 <0>         0.0737
     41 H8         -7.9434   -1.0193   -1.9702 H         1 <0>         0.0650
     42 H9         -7.5367    1.0487   -0.2599 H         1 <0>         0.1204
     43 H10        -9.0163    2.7453    0.7381 H         1 <0>         0.1233
     44 H11       -10.8300    2.0581    2.2551 H         1 <0>         0.1225
     45 H12       -11.1697   -0.3263    2.7672 H         1 <0>         0.1248
     46 H13        -9.6955   -2.0236    1.7626 H         1 <0>         0.1261
     47 H14        -6.0757   -0.1805    0.0626 H         1 <0>         0.4020
     48 H15        -3.6238   -0.8936    0.9243 H         1 <0>         0.1303
     49 H16        -3.6418   -0.8846   -0.8556 H         1 <0>         0.1288
     50 H17        -0.9579    1.9239    0.0171 H         1 <0>         0.1364
     51 H18         1.1436    3.1660    0.0078 H         1 <0>         0.1315
     52 H19         3.2987    1.9904   -0.0191 H         1 <0>         0.1310
     53 H20         3.3845   -0.4536   -0.0323 H         1 <0>         0.1367
     54 H21        -0.9384   -4.5507   -0.5256 H         1 <0>         0.0983
     55 H22         0.8398   -4.6288   -0.5433 H         1 <0>         0.1070
     56 H23         0.8733   -4.4248    1.9277 H         1 <0>         0.0710
     57 H24        -0.9048   -4.3467    1.9454 H         1 <0>         0.0732
     58 H25        -1.0139   -6.5960    0.9074 H         1 <0>         0.0640
     59 H26         0.7643   -6.6741    0.8897 H         1 <0>         0.0622
     60 H27         0.7978   -6.4700    3.3608 H         1 <0>         0.0595
     61 H28        -0.9803   -6.3920    3.3784 H         1 <0>         0.0612
     62 H29        -1.0894   -8.6413    2.3405 H         1 <0>         0.0631
     63 H30         0.6888   -8.7193    2.3228 H         1 <0>         0.0621
     64 O4         -0.2431  -10.1486    4.5047 O.co2     1 <0>        -0.7795
@<TRIPOS>BOND
     1    1    2 1
     2    1   35 1
     3    1   36 1
     4    1   37 1
     5    2    3 1
     6    2   38 1
     7    2   39 1
     8    3    4 1
     9    3   40 1
    10    3   41 1
    11    4    5 1
    12    4    6 1
    13    4   12 1
    14    6   11 ar
    15    6    7 ar
    16    7    8 ar
    17    7   42 1
    18    8    9 ar
    19    8   43 1
    20    9   10 ar
    21    9   44 1
    22   10   11 ar
    23   10   45 1
    24   11   46 1
    25   12   13 am
    26   12   47 1
    27   13   14 2
    28   13   15 1
    29   15   16 1
    30   15   48 1
    31   15   49 1
    32   16   17 1
    33   17   27 1
    34   17   18 2
    35   18   19 1
    36   19   24 ar
    37   19   20 ar
    38   20   21 ar
    39   20   50 1
    40   21   22 ar
    41   21   51 1
    42   22   23 ar
    43   22   52 1
    44   23   24 ar
    45   23   53 1
    46   24   25 1
    47   25   26 2
    48   25   27 am
    49   27   28 1
    50   28   29 1
    51   28   54 1
    52   28   55 1
    53   29   30 1
    54   29   56 1
    55   29   57 1
    56   30   31 1
    57   30   58 1
    58   30   59 1
    59   31   32 1
    60   31   60 1
    61   31   61 1
    62   32   33 1
    63   32   62 1
    64   32   63 1
    65   33   34 2
    66   33   64 1
@<TRIPOS>MOLECULE
ZINC35566925
   71    73     0     0     0
SMALL
USER_CHARGES

@<TRIPOS>ATOM
      1 C1         -4.8100   -5.0388   -3.7472 C.3       1 <0>        -0.1462
      2 C2         -3.5997   -4.8916   -2.8229 C.3       1 <0>         0.0509
      3 O1         -3.7436   -3.7086   -2.0343 O.3       1 <0>        -0.3083
      4 C3         -2.7088   -3.3839   -1.2138 C.ar      1 <0>         0.0987
      5 C4         -1.5404   -4.1282   -1.2420 C.ar      1 <0>        -0.1354
      6 C5         -0.4893   -3.7964   -0.4076 C.ar      1 <0>        -0.0741
      7 C6         -0.6008   -2.7229    0.4564 C.ar      1 <0>        -0.1046
      8 C7         -1.7639   -1.9765    0.4898 C.ar      1 <0>        -0.1769
      9 C8         -2.8189   -2.2998   -0.3483 C.ar      1 <0>         0.0986
     10 O2         -3.9615   -1.5629   -0.3210 O.3       1 <0>        -0.3063
     11 C9         -4.0035   -0.4647    0.5924 C.3       1 <0>         0.0591
     12 C10        -5.3572    0.2397    0.4811 C.3       1 <0>        -0.1139
     13 C11        -5.4021    1.4155    1.4591 C.3       1 <0>        -0.0930
     14 C12        -6.7040    2.1944    1.2606 C.3       1 <0>        -0.1465
     15 C13        -5.3370    0.8883    2.8939 C.3       1 <0>        -0.1527
     16 C14         0.7807   -4.6071   -0.4396 C.3       1 <0>         0.2511
     17 H1          1.6379   -3.9688   -0.2253 H         1 <0>         0.0729
     18 C15         0.9454   -5.2618   -1.7912 C.2       1 <0>        -0.4861
     19 C16         0.9609   -6.5974   -1.5788 C.2       1 <0>         0.2852
     20 C17         0.8125   -6.8614   -0.1333 C.2       1 <0>         0.5104
     21 O3          0.7898   -7.9647    0.3752 O.2       1 <0>        -0.5287
     22 N1          0.7074   -5.6989    0.5386 N.am      1 <0>        -0.6048
     23 C18         0.5482   -5.5497    1.9872 C.3       1 <0>         0.1425
     24 C19        -0.9410   -5.5388    2.3382 C.3       1 <0>        -0.1419
     25 C20        -1.1072   -5.3830    3.8511 C.3       1 <0>         0.0678
     26 O4         -2.4981   -5.3728    4.1789 O.3       1 <0>        -0.3890
     27 C21        -2.7650   -5.2309    5.5756 C.3       1 <0>         0.0324
     28 O5          1.0913   -7.5426   -2.5391 O.3       1 <0>        -0.6022
     29 C22         1.0650   -4.5798   -3.0855 C.2       1 <0>         0.5020
     30 O6          1.0835   -5.2286   -4.1165 O.2       1 <0>        -0.4752
     31 C23         1.1622   -3.1175   -3.1376 C.2       1 <0>        -0.2402
     32 C24         1.1387   -2.2634   -4.2341 C.2       1 <0>         0.1028
     33 N2          1.2462   -0.9847   -3.9740 N.2       1 <0>        -0.5228
     34 C25         1.3692   -0.5377   -2.7448 C.2       1 <0>         0.0120
     35 S1          1.3358   -1.9363   -1.8093 S.3       1 <0>         0.1640
     36 C26         1.5022    0.8901   -2.2816 C.3       1 <0>        -0.0594
     37 C27         0.9980   -2.7801   -5.6427 C.3       1 <0>        -0.0823
     38 H2         -4.6596   -5.8909   -4.4100 H         1 <0>         0.0771
     39 H3         -5.7071   -5.1979   -3.1487 H         1 <0>         0.0619
     40 H4         -4.9257   -4.1323   -4.3414 H         1 <0>         0.0637
     41 H5         -3.5358   -5.7599   -2.1670 H         1 <0>         0.0615
     42 H6         -2.6917   -4.8209   -3.4217 H         1 <0>         0.0649
     43 H7         -1.4510   -4.9677   -1.9155 H         1 <0>         0.1417
     44 H8          0.2225   -2.4671    1.1070 H         1 <0>         0.1223
     45 H9         -1.8485   -1.1386    1.1659 H         1 <0>         0.1282
     46 H10        -3.8679   -0.8326    1.6094 H         1 <0>         0.0609
     47 H11        -3.2068    0.2390    0.3514 H         1 <0>         0.0565
     48 H12        -5.4928    0.6076   -0.5359 H         1 <0>         0.0726
     49 H13        -6.1539   -0.4640    0.7222 H         1 <0>         0.0732
     50 H14        -4.5532    2.0739    1.2750 H         1 <0>         0.0717
     51 H15        -7.5530    1.5361    1.4447 H         1 <0>         0.0558
     52 H16        -6.7360    3.0321    1.9573 H         1 <0>         0.0555
     53 H17        -6.7504    2.5700    0.2384 H         1 <0>         0.0556
     54 H18        -6.1860    0.2299    3.0780 H         1 <0>         0.0567
     55 H19        -4.4095    0.3334    3.0353 H         1 <0>         0.0568
     56 H20        -5.3690    1.7259    3.5906 H         1 <0>         0.0548
     57 H21         1.0348   -6.3831    2.4940 H         1 <0>         0.0799
     58 H22         1.0040   -4.6131    2.3083 H         1 <0>         0.0764
     59 H23        -1.4276   -4.7054    1.8315 H         1 <0>         0.0819
     60 H24        -1.3968   -6.4754    2.0171 H         1 <0>         0.0732
     61 H25        -0.6206   -6.2163    4.3579 H         1 <0>         0.0485
     62 H26        -0.6514   -4.4464    4.1722 H         1 <0>         0.0485
     63 H27        -3.8423   -5.2323    5.7416 H         1 <0>         0.0829
     64 H28        -2.3128   -6.0611    6.1181 H         1 <0>         0.0392
     65 H29        -2.3436   -4.2912    5.9324 H         1 <0>         0.0388
     66 H30         0.5203    1.2764   -2.0080 H         1 <0>         0.0823
     67 H31         2.1629    0.9311   -1.4156 H         1 <0>         0.0808
     68 H32         1.9196    1.4957   -3.0860 H         1 <0>         0.0851
     69 H33        -0.0583   -2.8346   -5.9059 H         1 <0>         0.0702
     70 H34         1.5093   -2.1059   -6.3299 H         1 <0>         0.0653
     71 H35         1.4413   -3.7736   -5.7113 H         1 <0>         0.0955
@<TRIPOS>BOND
     1    1    2 1
     2    1   38 1
     3    1   39 1
     4    1   40 1
     5    2    3 1
     6    2   41 1
     7    2   42 1
     8    3    4 1
     9    4    9 ar
    10    4    5 ar
    11    5    6 ar
    12    5   43 1
    13    6    7 ar
    14    6   16 1
    15    7    8 ar
    16    7   44 1
    17    8    9 ar
    18    8   45 1
    19    9   10 1
    20   10   11 1
    21   11   12 1
    22   11   46 1
    23   11   47 1
    24   12   13 1
    25   12   48 1
    26   12   49 1
    27   13   14 1
    28   13   15 1
    29   13   50 1
    30   14   51 1
    31   14   52 1
    32   14   53 1
    33   15   54 1
    34   15   55 1
    35   15   56 1
    36   16   17 1
    37   16   22 1
    38   16   18 1
    39   18   19 2
    40   18   29 1
    41   19   20 1
    42   19   28 1
    43   20   21 2
    44   20   22 am
    45   22   23 1
    46   23   24 1
    47   23   57 1
    48   23   58 1
    49   24   25 1
    50   24   59 1
    51   24   60 1
    52   25   26 1
    53   25   61 1
    54   25   62 1
    55   26   27 1
    56   27   63 1
    57   27   64 1
    58   27   65 1
    59   29   30 2
    60   29   31 1
    61   31   35 1
    62   31   32 2
    63   32   33 1
    64   32   37 1
    65   33   34 2
    66   34   35 1
    67   34   36 1
    68   36   66 1
    69   36   67 1
    70   36   68 1
    71   37   69 1
    72   37   70 1
    73   37   71 1
@<TRIPOS>MOLECULE
ZINC40079124
   74    76     0     0     0
SMALL
USER_CHARGES

@<TRIPOS>ATOM
      1 C1         -0.2097    1.5716    0.1984 C.3       1 <0>        -0.1495
      2 C2         -0.2100    0.0416    0.1883 C.3       1 <0>        -0.1214
      3 C3         -1.6524   -0.4678    0.1595 C.3       1 <0>         0.0577
      4 O1         -1.6528   -1.8968    0.1501 O.3       1 <0>        -0.3085
      5 C4         -2.8645   -2.5138    0.1247 C.ar      1 <0>         0.0901
      6 C5         -4.0270   -1.7601    0.1033 C.ar      1 <0>        -0.1699
      7 C6         -5.2579   -2.3889    0.0770 C.ar      1 <0>        -0.0902
      8 C7         -5.3325   -3.7694    0.0724 C.ar      1 <0>        -0.0654
      9 C8         -4.1765   -4.5272    0.0940 C.ar      1 <0>        -0.1654
     10 C9         -2.9394   -3.9033    0.1142 C.ar      1 <0>         0.0995
     11 O2         -1.8011   -4.6472    0.1295 O.3       1 <0>        -0.3077
     12 C10        -1.9502   -6.0636    0.0130 C.3       1 <0>         0.0531
     13 C11        -0.5835   -6.7345    0.1642 C.3       1 <0>        -0.1490
     14 C12        -6.6769   -4.4496    0.0441 C.3       1 <0>         0.2688
     15 H1         -6.5764   -5.4615   -0.3483 H         1 <0>         0.0637
     16 C13        -7.2692   -4.4876    1.4336 C.2       1 <0>        -0.5054
     17 C14        -8.4324   -3.7981    1.3813 C.2       1 <0>         0.2654
     18 C15        -8.6400   -3.2996    0.0056 C.2       1 <0>         0.5163
     19 O3         -9.5944   -2.6435   -0.3617 O.2       1 <0>        -0.5187
     20 N1         -7.6150   -3.6793   -0.7810 N.am      1 <0>        -0.6116
     21 C16        -7.4622   -3.3775   -2.2064 C.3       1 <0>         0.1395
     22 C17        -8.1134   -4.4864   -3.0352 C.3       1 <0>         0.0439
     23 O4         -9.5227   -4.4926   -2.7990 O.3       1 <0>        -0.3567
     24 C18       -10.2301   -5.4967   -3.5293 C.3       1 <0>         0.0625
     25 C19       -11.7219   -5.4106   -3.2007 C.3       1 <0>         0.0786
     26 O5        -12.2418   -4.1650   -3.6700 O.3       1 <0>        -0.5634
     27 O6         -9.2722   -3.5974    2.4230 O.3       1 <0>        -0.6571
     28 C20        -6.6943   -5.1450    2.6116 C.2       1 <0>         0.5073
     29 O7         -6.3058   -4.4773    3.5520 O.2       1 <0>        -0.4767
     30 C21        -6.5869   -6.6165    2.6568 C.ar      1 <0>        -0.1722
     31 C22        -6.9499   -7.3804    1.5433 C.ar      1 <0>        -0.0269
     32 C23        -6.8483   -8.7525    1.5897 C.ar      1 <0>        -0.2273
     33 C24        -6.3854   -9.3788    2.7416 C.ar      1 <0>         0.1423
     34 C25        -6.0239   -8.6229    3.8513 C.ar      1 <0>        -0.1681
     35 C26        -6.1166   -7.2500    3.8111 C.ar      1 <0>        -0.0351
     36 O8         -6.2867  -10.7315    2.7832 O.3       1 <0>        -0.3114
     37 C27        -6.5518  -11.4389    1.5701 C.3       1 <0>         0.0759
     38 C28        -5.8289  -12.7871    1.5976 C.3       1 <0>        -0.1477
     39 C29        -8.0579  -11.6705    1.4335 C.3       1 <0>        -0.1821
     40 H2          0.8179    1.9345    0.2189 H         1 <0>         0.0617
     41 H3         -0.7076    1.9410   -0.6981 H         1 <0>         0.0567
     42 H4         -0.7390    1.9292    1.0816 H         1 <0>         0.0577
     43 H5          0.3193   -0.3160   -0.6948 H         1 <0>         0.0711
     44 H6          0.2879   -0.3277    1.0848 H         1 <0>         0.0722
     45 H7         -2.1818   -0.1102    1.0427 H         1 <0>         0.0599
     46 H8         -2.1504   -0.0985   -0.7370 H         1 <0>         0.0583
     47 H9         -3.9716   -0.6816    0.1076 H         1 <0>         0.1293
     48 H10        -6.1633   -1.8003    0.0604 H         1 <0>         0.1231
     49 H11        -4.2375   -5.6054    0.0907 H         1 <0>         0.1303
     50 H12        -2.6201   -6.4239    0.7937 H         1 <0>         0.0615
     51 H13        -2.3677   -6.3059   -0.9643 H         1 <0>         0.0580
     52 H14         0.0865   -6.3742   -0.6165 H         1 <0>         0.0634
     53 H15        -0.1659   -6.4923    1.1415 H         1 <0>         0.0648
     54 H16        -0.6972   -7.8149    0.0753 H         1 <0>         0.0745
     55 H17        -7.9445   -2.4259   -2.4299 H         1 <0>         0.0862
     56 H18        -6.4023   -3.3143   -2.4528 H         1 <0>         0.0891
     57 H19        -7.9231   -4.3084   -4.0936 H         1 <0>         0.0526
     58 H20        -7.6925   -5.4499   -2.7474 H         1 <0>         0.0482
     59 H21       -10.0837   -5.3396   -4.5980 H         1 <0>         0.0497
     60 H22        -9.8532   -6.4811   -3.2518 H         1 <0>         0.0574
     61 H23       -12.2491   -6.2310   -3.6877 H         1 <0>         0.0547
     62 H24       -11.8608   -5.4789   -2.1218 H         1 <0>         0.0570
     63 H25       -13.1849   -4.0417   -3.4954 H         1 <0>         0.3765
     64 H26        -7.3098   -6.8947    0.6483 H         1 <0>         0.1353
     65 H27        -7.1287   -9.3433    0.7302 H         1 <0>         0.1280
     66 H28        -5.6655   -9.1133    4.7443 H         1 <0>         0.1289
     67 H29        -5.8310   -6.6633    4.6717 H         1 <0>         0.1358
     68 H30        -6.1959  -10.8530    0.7227 H         1 <0>         0.0743
     69 H31        -6.1848  -13.3730    2.4450 H         1 <0>         0.0656
     70 H32        -6.0311  -13.3266    0.6723 H         1 <0>         0.0748
     71 H33        -4.7559  -12.6221    1.6950 H         1 <0>         0.0640
     72 H34        -8.5729  -10.7100    1.4139 H         1 <0>         0.0666
     73 H35        -8.2601  -12.2100    0.5082 H         1 <0>         0.0697
     74 H36        -8.4138  -12.2564    2.2809 H         1 <0>         0.0662
@<TRIPOS>BOND
     1    1    2 1
     2    1   40 1
     3    1   41 1
     4    1   42 1
     5    2    3 1
     6    2   43 1
     7    2   44 1
     8    3    4 1
     9    3   45 1
    10    3   46 1
    11    4    5 1
    12    5   10 ar
    13    5    6 ar
    14    6    7 ar
    15    6   47 1
    16    7    8 ar
    17    7   48 1
    18    8    9 ar
    19    8   14 1
    20    9   10 ar
    21    9   49 1
    22   10   11 1
    23   11   12 1
    24   12   13 1
    25   12   50 1
    26   12   51 1
    27   13   52 1
    28   13   53 1
    29   13   54 1
    30   14   15 1
    31   14   20 1
    32   14   16 1
    33   16   17 2
    34   16   28 1
    35   17   18 1
    36   17   27 1
    37   18   19 2
    38   18   20 am
    39   20   21 1
    40   21   22 1
    41   21   55 1
    42   21   56 1
    43   22   23 1
    44   22   57 1
    45   22   58 1
    46   23   24 1
    47   24   25 1
    48   24   59 1
    49   24   60 1
    50   25   26 1
    51   25   61 1
    52   25   62 1
    53   26   63 1
    54   28   29 2
    55   28   30 1
    56   30   35 ar
    57   30   31 ar
    58   31   32 ar
    59   31   64 1
    60   32   33 ar
    61   32   65 1
    62   33   34 ar
    63   33   36 1
    64   34   35 ar
    65   34   66 1
    66   35   67 1
    67   36   37 1
    68   37   38 1
    69   37   39 1
    70   37   68 1
    71   38   69 1
    72   38   70 1
    73   38   71 1
    74   39   72 1
    75   39   73 1
    76   39   74 1
@<TRIPOS>MOLECULE
ZINC40092394
   73    75     0     0     0
SMALL
USER_CHARGES

@<TRIPOS>ATOM
      1 C1          0.3609    2.3510   -1.0035 C.3       1 <0>        -0.1501
      2 C2          0.4470    0.8461   -0.7411 C.3       1 <0>        -0.1207
      3 C3          1.1712    0.1661   -1.9047 C.3       1 <0>        -0.1370
      4 C4          1.2573   -1.3387   -1.6423 C.3       1 <0>         0.1365
      5 N1          1.9507   -1.9898   -2.7565 N.am      1 <0>        -0.6113
      6 C5          1.3227   -2.5245   -3.9704 C.3       1 <0>         0.2674
      7 H1          0.8148   -1.7267   -4.5122 H         1 <0>         0.0668
      8 C6          2.4438   -3.0908   -4.8102 C.2       1 <0>        -0.5012
      9 C7          3.5900   -2.8867   -4.1204 C.2       1 <0>         0.2623
     10 C8          3.2765   -2.1982   -2.8507 C.2       1 <0>         0.5109
     11 O1          4.0949   -1.8714   -2.0142 O.2       1 <0>        -0.5363
     12 O2          4.8270   -3.2508   -4.5301 O.3       1 <0>        -0.6549
     13 C9          2.3147   -3.7371   -6.1201 C.2       1 <0>         0.5068
     14 O3          2.5797   -4.9184   -6.2446 O.2       1 <0>        -0.4760
     15 C10         1.8633   -2.9550   -7.2878 C.ar      1 <0>        -0.1680
     16 C11         1.6788   -1.5732   -7.1772 C.ar      1 <0>        -0.0288
     17 C12         1.2578   -0.8476   -8.2684 C.ar      1 <0>        -0.2215
     18 C13         1.0155   -1.4867   -9.4795 C.ar      1 <0>         0.1397
     19 C14         1.1977   -2.8603   -9.5937 C.ar      1 <0>        -0.1337
     20 C15         1.6246   -3.5926   -8.5088 C.ar      1 <0>        -0.0370
     21 C16         0.9331   -3.5476  -10.9085 C.3       1 <0>        -0.1001
     22 O4          0.5996   -0.7678  -10.5526 O.3       1 <0>        -0.3088
     23 C17         0.3184    0.6165  -10.3366 C.3       1 <0>         0.0845
     24 C18        -0.2409    1.2185  -11.5998 C.2       1 <0>        -0.1525
     25 C19        -1.2885    2.0030  -11.5435 C.2       1 <0>        -0.1750
     26 C20         0.3427   -3.6116   -3.6111 C.ar      1 <0>        -0.0672
     27 C21         0.6953   -4.5815   -2.6912 C.ar      1 <0>        -0.0828
     28 C22        -0.2001   -5.5807   -2.3582 C.ar      1 <0>        -0.1714
     29 C23        -1.4543   -5.6114   -2.9464 C.ar      1 <0>         0.0924
     30 C24        -1.8094   -4.6348   -3.8720 C.ar      1 <0>         0.0943
     31 C25        -0.9089   -3.6333   -4.1977 C.ar      1 <0>        -0.1642
     32 O5         -3.0391   -4.6607   -4.4520 O.3       1 <0>        -0.3098
     33 C26        -3.2975   -3.6900   -5.4685 C.3       1 <0>         0.0275
     34 O6         -2.3362   -6.5940   -2.6203 O.3       1 <0>        -0.3082
     35 C27        -1.9032   -7.5628   -1.6632 C.3       1 <0>         0.0577
     36 C28        -3.0211   -8.5800   -1.4257 C.3       1 <0>        -0.1172
     37 C29        -2.5576   -9.6173   -0.4010 C.3       1 <0>        -0.1225
     38 C30        -3.6755  -10.6344   -0.1634 C.3       1 <0>        -0.1509
     39 H2          1.3662    2.7619   -1.0957 H         1 <0>         0.0535
     40 H3         -0.1900    2.5278   -1.9273 H         1 <0>         0.0523
     41 H4         -0.1550    2.8355   -0.1745 H         1 <0>         0.0510
     42 H5          0.9979    0.6694    0.1827 H         1 <0>         0.0620
     43 H6         -0.5583    0.4353   -0.6489 H         1 <0>         0.0609
     44 H7          0.6203    0.3429   -2.8285 H         1 <0>         0.0634
     45 H8          2.1765    0.5770   -1.9969 H         1 <0>         0.0666
     46 H9          1.8082   -1.5155   -0.7185 H         1 <0>         0.0760
     47 H10         0.2519   -1.7496   -1.5501 H         1 <0>         0.0735
     48 H11         1.8661   -1.0761   -6.2368 H         1 <0>         0.1362
     49 H12         1.1150    0.2196   -8.1838 H         1 <0>         0.1267
     50 H13         1.7702   -4.6589   -8.5996 H         1 <0>         0.1356
     51 H14         1.8472   -3.5606  -11.5021 H         1 <0>         0.0648
     52 H15         0.6050   -4.5706  -10.7241 H         1 <0>         0.0636
     53 H16         0.1557   -3.0088  -11.4502 H         1 <0>         0.0663
     54 H17        -0.4102    0.7180   -9.5322 H         1 <0>         0.0678
     55 H18         1.2369    1.1354  -10.0625 H         1 <0>         0.0728
     56 H19         0.2220    1.0032  -12.5516 H         1 <0>         0.1190
     57 H20        -1.6893    2.4345  -12.4488 H         1 <0>         0.1063
     58 H21        -1.7514    2.2183  -10.5918 H         1 <0>         0.0994
     59 H22         1.6725   -4.5587   -2.2320 H         1 <0>         0.1224
     60 H23         0.0781   -6.3377   -1.6398 H         1 <0>         0.1296
     61 H24        -1.1833   -2.8720   -4.9130 H         1 <0>         0.1314
     62 H25        -3.1144   -2.6913   -5.0720 H         1 <0>         0.0525
     63 H26        -2.6392   -3.8699   -6.3184 H         1 <0>         0.0542
     64 H27        -4.3360   -3.7685   -5.7902 H         1 <0>         0.0947
     65 H28        -1.0189   -8.0764   -2.0407 H         1 <0>         0.0602
     66 H29        -1.6607   -7.0636   -0.7251 H         1 <0>         0.0585
     67 H30        -3.9054   -8.0664   -1.0482 H         1 <0>         0.0717
     68 H31        -3.2636   -9.0791   -2.3638 H         1 <0>         0.0726
     69 H32        -1.6733  -10.1308   -0.7784 H         1 <0>         0.0652
     70 H33        -2.3151   -9.1181    0.5372 H         1 <0>         0.0642
     71 H34        -3.3453  -11.3734    0.5666 H         1 <0>         0.0552
     72 H35        -4.5598  -10.1209    0.2140 H         1 <0>         0.0546
     73 H36        -3.9180  -11.1336   -1.1016 H         1 <0>         0.0552
@<TRIPOS>BOND
     1    1    2 1
     2    1   39 1
     3    1   40 1
     4    1   41 1
     5    2    3 1
     6    2   42 1
     7    2   43 1
     8    3    4 1
     9    3   44 1
    10    3   45 1
    11    4    5 1
    12    4   46 1
    13    4   47 1
    14    5   10 am
    15    5    6 1
    16    6    7 1
    17    6    8 1
    18    6   26 1
    19    8    9 2
    20    8   13 1
    21    9   10 1
    22    9   12 1
    23   10   11 2
    24   13   14 2
    25   13   15 1
    26   15   20 ar
    27   15   16 ar
    28   16   17 ar
    29   16   48 1
    30   17   18 ar
    31   17   49 1
    32   18   19 ar
    33   18   22 1
    34   19   20 ar
    35   19   21 1
    36   20   50 1
    37   21   51 1
    38   21   52 1
    39   21   53 1
    40   22   23 1
    41   23   24 1
    42   23   54 1
    43   23   55 1
    44   24   25 2
    45   24   56 1
    46   25   57 1
    47   25   58 1
    48   26   31 ar
    49   26   27 ar
    50   27   28 ar
    51   27   59 1
    52   28   29 ar
    53   28   60 1
    54   29   30 ar
    55   29   34 1
    56   30   31 ar
    57   30   32 1
    58   31   61 1
    59   32   33 1
    60   33   62 1
    61   33   63 1
    62   33   64 1
    63   34   35 1
    64   35   36 1
    65   35   65 1
    66   35   66 1
    67   36   37 1
    68   36   67 1
    69   36   68 1
    70   37   38 1
    71   37   69 1
    72   37   70 1
    73   38   71 1
    74   38   72 1
    75   38   73 1
@<TRIPOS>MOLECULE
ZINC04136158
   56    58     0     0     0
SMALL
USER_CHARGES
6-[5-[[4-[(2-chlorophenyl)methoxy]-3-methoxy-phenyl]methylene]-4-oxo-2-thioxo-thiazolidin-3-yl]hexanoic acid
@<TRIPOS>ATOM
      1 C1         -1.8141    3.5888   -4.5954 C.3       1 <0>         0.0222
      2 O1         -1.3997    2.9658   -3.3779 O.3       1 <0>        -0.3029
      3 C2         -0.4997    1.9513   -3.4787 C.ar      1 <0>         0.1011
      4 C3         -0.0249    1.5704   -4.7183 C.ar      1 <0>        -0.1323
      5 C4          0.8970    0.5213   -4.8185 C.ar      1 <0>        -0.0934
      6 C5          1.3365   -0.1317   -3.6604 C.ar      1 <0>        -0.0746
      7 C6          0.8615    0.2592   -2.4278 C.ar      1 <0>        -0.1714
      8 C7         -0.0527    1.2997   -2.3299 C.ar      1 <0>         0.1344
      9 O2         -0.5174    1.6803   -1.1113 O.3       1 <0>        -0.2929
     10 C8         -0.0226    0.9667    0.0235 C.3       1 <0>         0.0967
     11 C9         -0.6447    1.5242    1.2778 C.ar      1 <0>        -0.0839
     12 C10        -1.5400    2.5743    1.1976 C.ar      1 <0>        -0.0842
     13 C11        -2.1140    3.0829    2.3476 C.ar      1 <0>        -0.1138
     14 C12        -1.7857    2.5480    3.5796 C.ar      1 <0>        -0.1051
     15 C13        -0.8868    1.5016    3.6615 C.ar      1 <0>        -0.1084
     16 C14        -0.3156    0.9889    2.5102 C.ar      1 <0>        -0.0302
     17 Cl1         0.8142   -0.3253    2.6123 Cl        1 <0>        -0.0636
     18 C15         1.4010    0.1068   -6.1339 C.2       1 <0>         0.0863
     19 C16         2.1562   -1.0153   -6.2486 C.2       1 <0>        -0.2393
     20 C17         2.8857   -1.5434   -7.4188 C.2       1 <0>         0.5440
     21 O3          2.8771   -0.9673   -8.4910 O.2       1 <0>        -0.4525
     22 N1          3.5521   -2.6719   -7.2419 N.am      1 <0>        -0.5173
     23 C18         3.5531   -3.3107   -6.0542 C.2       1 <0>         0.2618
     24 S1          4.3399   -4.7719   -5.6336 S.2       1 <0>        -0.3320
     25 S2          2.5345   -2.2642   -5.0268 S.3       1 <0>         0.0661
     26 C19         4.3012   -3.2442   -8.3632 C.3       1 <0>         0.0812
     27 C20         3.3935   -4.1885   -9.1540 C.3       1 <0>        -0.1294
     28 C21         4.1758   -4.7863  -10.3251 C.3       1 <0>        -0.1126
     29 C22         3.2681   -5.7306  -11.1158 C.3       1 <0>        -0.0966
     30 C23         4.0504   -6.3283  -12.2869 C.3       1 <0>        -0.1575
     31 C24         3.1563   -7.2584  -13.0657 C.2       1 <0>         0.4574
     32 O4          2.0109   -7.4260  -12.7196 O.co2     1 <0>        -0.6424
     33 H1         -2.5309    4.3793   -4.3734 H         1 <0>         0.1040
     34 H2         -0.9466    4.0157   -5.0987 H         1 <0>         0.0581
     35 H3         -2.2809    2.8464   -5.2428 H         1 <0>         0.0587
     36 H4         -0.3672    2.0774   -5.6083 H         1 <0>         0.1486
     37 H5          2.0478   -0.9411   -3.7334 H         1 <0>         0.1364
     38 H6          1.2013   -0.2449   -1.5351 H         1 <0>         0.1466
     39 H7         -0.2787   -0.0886   -0.0710 H         1 <0>         0.0859
     40 H8          1.0608    1.0744    0.0765 H         1 <0>         0.0852
     41 H9         -1.7937    2.9953    0.2359 H         1 <0>         0.1442
     42 H10        -2.8160    3.9012    2.2841 H         1 <0>         0.1321
     43 H11        -2.2317    2.9483    4.4781 H         1 <0>         0.1338
     44 H12        -0.6300    1.0843    4.6239 H         1 <0>         0.1370
     45 H13         1.1709    0.6948   -7.0101 H         1 <0>         0.1639
     46 H14         4.6479   -2.4426   -9.0155 H         1 <0>         0.1038
     47 H15         5.1586   -3.7989   -7.9820 H         1 <0>         0.1132
     48 H16         3.0468   -4.9901   -8.5017 H         1 <0>         0.0736
     49 H17         2.5361   -3.6338   -9.5352 H         1 <0>         0.0672
     50 H18         4.5225   -3.9847  -10.9773 H         1 <0>         0.0613
     51 H19         5.0332   -5.3410   -9.9439 H         1 <0>         0.0653
     52 H20         2.9214   -6.5321  -10.4636 H         1 <0>         0.0612
     53 H21         2.4107   -5.1759  -11.4970 H         1 <0>         0.0590
     54 H22         4.3971   -5.5268  -12.9391 H         1 <0>         0.0621
     55 H23         4.9078   -6.8830  -11.9057 H         1 <0>         0.0633
     56 O5          3.6324   -7.9007  -14.1439 O.co2     1 <0>        -0.7790
@<TRIPOS>BOND
     1    1    2 1
     2    1   33 1
     3    1   34 1
     4    1   35 1
     5    2    3 1
     6    3    8 ar
     7    3    4 ar
     8    4    5 ar
     9    4   36 1
    10    5    6 ar
    11    5   18 1
    12    6    7 ar
    13    6   37 1
    14    7    8 ar
    15    7   38 1
    16    8    9 1
    17    9   10 1
    18   10   11 1
    19   10   39 1
    20   10   40 1
    21   11   16 ar
    22   11   12 ar
    23   12   13 ar
    24   12   41 1
    25   13   14 ar
    26   13   42 1
    27   14   15 ar
    28   14   43 1
    29   15   16 ar
    30   15   44 1
    31   16   17 1
    32   18   19 2
    33   18   45 1
    34   19   25 1
    35   19   20 1
    36   20   21 2
    37   20   22 am
    38   22   23 1
    39   22   26 1
    40   23   24 2
    41   23   25 1
    42   26   27 1
    43   26   46 1
    44   26   47 1
    45   27   28 1
    46   27   48 1
    47   27   49 1
    48   28   29 1
    49   28   50 1
    50   28   51 1
    51   29   30 1
    52   29   52 1
    53   29   53 1
    54   30   31 1
    55   30   54 1
    56   30   55 1
    57   31   32 2
    58   31   56 1
@<TRIPOS>MOLECULE
ZINC13194264
   59    61     0     0     0
SMALL
USER_CHARGES
3-[3-(4-ethoxyphenyl)-5-[2-(1-ethyl-2,5-dimethyl-pyrrol-3-yl)-2-oxo-ethyl]sulfanyl-1,2,4-triazol-4-yl]propanoic acid
@<TRIPOS>ATOM
      1 C1         -2.9446   -8.8041    5.7848 C.3       1 <0>        -0.1700
      2 C2         -3.4362   -7.6375    6.6440 C.3       1 <0>         0.0910
      3 N1         -2.7637   -6.4052    6.2251 N.pl3     1 <0>        -0.4329
      4 C3         -1.5856   -5.9474    6.7404 C.2       1 <0>         0.0045
      5 C4         -1.2534   -4.7984    6.1283 C.2       1 <0>        -0.1469
      6 C5         -2.3234   -4.5208    5.1608 C.2       1 <0>        -0.2602
      7 C6         -3.2206   -5.5656    5.2791 C.2       1 <0>         0.1160
      8 C7         -4.4903   -5.7347    4.4852 C.3       1 <0>        -0.0974
      9 C8         -2.4170   -3.3755    4.2529 C.2       1 <0>         0.4453
     10 O1         -3.3614   -3.2757    3.4975 O.2       1 <0>        -0.4544
     11 C9         -1.3406   -2.3208    4.2569 C.3       1 <0>        -0.1501
     12 S1         -1.7394   -1.0471    3.0343 S.3       1 <0>         0.0644
     13 C10        -0.3570    0.0246    3.2469 C.2       1 <0>         0.1455
     14 N2          0.6391   -0.1454    4.0867 N.2       1 <0>        -0.2973
     15 N3          1.4732    0.8268    3.9849 N.2       1 <0>        -0.2795
     16 C11         1.0639    1.6748    3.0701 C.2       1 <0>         0.2288
     17 N4         -0.1194    1.1855    2.5668 N.pl3     1 <0>        -0.4454
     18 C12        -0.9538    1.7871    1.5238 C.3       1 <0>         0.1089
     19 C13        -0.5709    1.2012    0.1632 C.3       1 <0>        -0.1788
     20 C14        -1.4293    1.8201   -0.9097 C.2       1 <0>         0.4699
     21 O2         -2.2618    2.6451   -0.6164 O.co2     1 <0>        -0.6353
     22 C15         1.7453    2.9204    2.6589 C.ar      1 <0>        -0.0535
     23 C16         2.6950    3.5079    3.4967 C.ar      1 <0>        -0.0356
     24 C17         3.3318    4.6669    3.1074 C.ar      1 <0>        -0.2113
     25 C18         3.0223    5.2555    1.8884 C.ar      1 <0>         0.1414
     26 C19         2.0741    4.6773    1.0547 C.ar      1 <0>        -0.1427
     27 C20         1.4367    3.5155    1.4344 C.ar      1 <0>        -0.0706
     28 O3          3.6487    6.4005    1.5104 O.3       1 <0>        -0.3133
     29 C21         4.6131    6.9415    2.4155 C.3       1 <0>         0.0525
     30 C22         5.2076    8.2206    1.8226 C.3       1 <0>        -0.1525
     31 C23        -0.7816   -6.6266    7.8190 C.3       1 <0>        -0.0834
     32 H1         -3.1711   -8.6046    4.7374 H         1 <0>         0.0647
     33 H2         -1.8676   -8.9179    5.9084 H         1 <0>         0.0642
     34 H3         -3.4449   -9.7210    6.0964 H         1 <0>         0.0759
     35 H4         -3.2097   -7.8370    7.6914 H         1 <0>         0.0925
     36 H5         -4.5132   -7.5238    6.5204 H         1 <0>         0.0922
     37 H6         -0.3755   -4.1971    6.3127 H         1 <0>         0.1503
     38 H7         -4.2789   -6.3006    3.5779 H         1 <0>         0.0805
     39 H8         -5.2251   -6.2715    5.0852 H         1 <0>         0.0643
     40 H9         -4.8853   -4.7545    4.2184 H         1 <0>         0.1008
     41 H10        -0.4623   -2.7401    4.0271 H         1 <0>         0.1125
     42 H11        -1.2792   -1.8680    5.2465 H         1 <0>         0.1264
     43 H12        -0.7985    2.8659    1.5115 H         1 <0>         0.1089
     44 H13        -2.0027    1.5734    1.7292 H         1 <0>         0.1046
     45 H14        -0.7263    0.1224    0.1755 H         1 <0>         0.0805
     46 H15         0.4779    1.4150   -0.0423 H         1 <0>         0.0750
     47 H16         2.9335    3.0528    4.4466 H         1 <0>         0.1373
     48 H17         4.0696    5.1199    3.7531 H         1 <0>         0.1327
     49 H18         1.8360    5.1384    0.1076 H         1 <0>         0.1400
     50 H19         0.6994    3.0664    0.7855 H         1 <0>         0.1480
     51 H20         4.1309    7.1715    3.3656 H         1 <0>         0.0625
     52 H21         5.4075    6.2131    2.5781 H         1 <0>         0.0627
     53 H22         5.6899    7.9907    0.8725 H         1 <0>         0.0665
     54 H23         4.4132    8.9490    1.6600 H         1 <0>         0.0664
     55 H24         5.9432    8.6333    2.5130 H         1 <0>         0.0769
     56 H25        -0.0705   -7.3153    7.3628 H         1 <0>         0.0709
     57 H26        -0.2415   -5.8763    8.3964 H         1 <0>         0.0819
     58 H27        -1.4513   -7.1793    8.4778 H         1 <0>         0.0618
     59 O4         -1.2689    1.4548   -2.1914 O.co2     1 <0>        -0.7582
@<TRIPOS>BOND
     1    1    2 1
     2    1   32 1
     3    1   33 1
     4    1   34 1
     5    2    3 1
     6    2   35 1
     7    2   36 1
     8    3    7 1
     9    3    4 1
    10    4    5 2
    11    4   31 1
    12    5    6 1
    13    5   37 1
    14    6    7 2
    15    6    9 1
    16    7    8 1
    17    8   38 1
    18    8   39 1
    19    8   40 1
    20    9   10 2
    21    9   11 1
    22   11   12 1
    23   11   41 1
    24   11   42 1
    25   12   13 1
    26   13   17 1
    27   13   14 2
    28   14   15 1
    29   15   16 2
    30   16   17 1
    31   16   22 1
    32   17   18 1
    33   18   19 1
    34   18   43 1
    35   18   44 1
    36   19   20 1
    37   19   45 1
    38   19   46 1
    39   20   21 2
    40   20   59 1
    41   22   27 ar
    42   22   23 ar
    43   23   24 ar
    44   23   47 1
    45   24   25 ar
    46   24   48 1
    47   25   26 ar
    48   25   28 1
    49   26   27 ar
    50   26   49 1
    51   27   50 1
    52   28   29 1
    53   29   30 1
    54   29   51 1
    55   29   52 1
    56   30   53 1
    57   30   54 1
    58   30   55 1
    59   31   56 1
    60   31   57 1
    61   31   58 1
@<TRIPOS>MOLECULE
ZINC19882403
   58    60     0     0     0
SMALL
USER_CHARGES
6-[(2R)-3-(4-chlorobenzoyl)-2-(2,4-dimethoxyphenyl)-4-hydroxy-5-oxo-2H-pyrrol-1-yl]hexanoic acid
@<TRIPOS>ATOM
      1 C1         -8.9454   -3.5946   -2.6740 C.3       1 <0>         0.0265
      2 O1         -7.9204   -4.1983   -3.4660 O.3       1 <0>        -0.3216
      3 C2         -6.7094   -4.3767   -2.8759 C.ar      1 <0>         0.1488
      4 C3         -6.5121   -3.9785   -1.5610 C.ar      1 <0>        -0.2403
      5 C4         -5.2812   -4.1600   -0.9604 C.ar      1 <0>        -0.0270
      6 C5         -4.2436   -4.7382   -1.6667 C.ar      1 <0>        -0.1302
      7 C6         -4.4343   -5.1330   -2.9831 C.ar      1 <0>         0.1704
      8 C7         -5.6702   -4.9568   -3.5865 C.ar      1 <0>        -0.2406
      9 O2         -3.4120   -5.6964   -3.6790 O.3       1 <0>        -0.2978
     10 C8         -3.7115   -6.1907   -4.9859 C.3       1 <0>         0.0258
     11 C9         -2.9021   -4.9342   -1.0087 C.3       1 <0>         0.2743
     12 H1         -2.1245   -4.8372   -1.7806 H         1 <0>         0.0753
     13 C10        -2.8515   -6.2756   -0.3151 C.2       1 <0>        -0.4974
     14 C11        -2.6497   -6.0278    1.0002 C.2       1 <0>         0.2645
     15 C12        -2.5574   -4.5675    1.2105 C.2       1 <0>         0.5100
     16 O3         -2.3781   -4.0277    2.2841 O.2       1 <0>        -0.5364
     17 N1         -2.7009   -3.9247    0.0374 N.am      1 <0>        -0.6109
     18 C13        -2.6682   -2.4734   -0.1600 C.3       1 <0>         0.1343
     19 C14        -1.2307   -2.0286   -0.4368 C.3       1 <0>        -0.1352
     20 C15        -1.1967   -0.5129   -0.6429 C.3       1 <0>        -0.1144
     21 C16         0.2409   -0.0681   -0.9197 C.3       1 <0>        -0.0976
     22 C17         0.2749    1.4476   -1.1259 C.3       1 <0>        -0.1567
     23 C18         1.6908    1.8858   -1.3984 C.2       1 <0>         0.4583
     24 O4          2.5813    1.0695   -1.4251 O.co2     1 <0>        -0.6408
     25 O5          1.9627    3.1828   -1.6116 O.co2     1 <0>        -0.7860
     26 O6         -2.5482   -6.9672    1.9683 O.3       1 <0>        -0.6601
     27 C19        -2.9993   -7.5914   -0.9444 C.2       1 <0>         0.5099
     28 O7         -3.9615   -8.2876   -0.6798 O.2       1 <0>        -0.4788
     29 C20        -1.9796   -8.0723   -1.9001 C.ar      1 <0>        -0.1206
     30 C21        -0.8792   -7.2709   -2.2138 C.ar      1 <0>        -0.0402
     31 C22         0.0717   -7.7277   -3.1013 C.ar      1 <0>        -0.1255
     32 C23        -0.0687   -8.9735   -3.6911 C.ar      1 <0>        -0.0226
     33 C24        -1.1608   -9.7705   -3.3884 C.ar      1 <0>        -0.1306
     34 C25        -2.1153   -9.3276   -2.4978 C.ar      1 <0>        -0.0682
     35 Cl1         1.1290   -9.5383   -4.8136 Cl        1 <0>        -0.0862
     36 H2         -9.8667   -3.5101   -3.2691 H         1 <0>         0.0951
     37 H3         -8.6210   -2.5927   -2.3562 H         1 <0>         0.0555
     38 H4         -9.1375   -4.2163   -1.7871 H         1 <0>         0.0555
     39 H5         -7.3215   -3.5268   -1.0068 H         1 <0>         0.1237
     40 H6         -5.1297   -3.8499    0.0630 H         1 <0>         0.1282
     41 H7         -5.8217   -5.2669   -4.6099 H         1 <0>         0.1309
     42 H8         -2.8019   -6.6173   -5.4339 H         1 <0>         0.0979
     43 H9         -4.0779   -5.3659   -5.6148 H         1 <0>         0.0528
     44 H10        -4.4852   -6.9694   -4.9150 H         1 <0>         0.0530
     45 H11        -3.3061   -2.2052   -1.0151 H         1 <0>         0.0732
     46 H12        -3.0393   -1.9717    0.7459 H         1 <0>         0.0762
     47 H13        -0.5928   -2.2968    0.4183 H         1 <0>         0.0668
     48 H14        -0.8596   -2.5303   -1.3427 H         1 <0>         0.0644
     49 H15        -1.8346   -0.2447   -1.4980 H         1 <0>         0.0560
     50 H16        -1.5678   -0.0112    0.2630 H         1 <0>         0.0571
     51 H17         0.8788   -0.3363   -0.0646 H         1 <0>         0.0596
     52 H18         0.6120   -0.5699   -1.8255 H         1 <0>         0.0590
     53 H19        -0.3629    1.7157   -1.9811 H         1 <0>         0.0604
     54 H20        -0.0963    1.9493   -0.2201 H         1 <0>         0.0609
     55 H21        -0.7714   -6.2975   -1.7586 H         1 <0>         0.1443
     56 H22         0.9254   -7.1111   -3.3410 H         1 <0>         0.1337
     57 H23        -1.2643  -10.7410   -3.8509 H         1 <0>         0.1285
     58 H24        -2.9660   -9.9499   -2.2623 H         1 <0>         0.1350
@<TRIPOS>BOND
     1    1    2 1
     2    1   36 1
     3    1   37 1
     4    1   38 1
     5    2    3 1
     6    3    8 ar
     7    3    4 ar
     8    4    5 ar
     9    4   39 1
    10    5    6 ar
    11    5   40 1
    12    6    7 ar
    13    6   11 1
    14    7    8 ar
    15    7    9 1
    16    8   41 1
    17    9   10 1
    18   10   42 1
    19   10   43 1
    20   10   44 1
    21   11   12 1
    22   11   17 1
    23   11   13 1
    24   13   14 2
    25   13   27 1
    26   14   15 1
    27   14   26 1
    28   15   16 2
    29   15   17 am
    30   17   18 1
    31   18   19 1
    32   18   45 1
    33   18   46 1
    34   19   20 1
    35   19   47 1
    36   19   48 1
    37   20   21 1
    38   20   49 1
    39   20   50 1
    40   21   22 1
    41   21   51 1
    42   21   52 1
    43   22   23 1
    44   22   53 1
    45   22   54 1
    46   23   24 2
    47   23   25 1
    48   27   28 2
    49   27   29 1
    50   29   34 ar
    51   29   30 ar
    52   30   31 ar
    53   30   55 1
    54   31   32 ar
    55   31   56 1
    56   32   33 ar
    57   32   35 1
    58   33   34 ar
    59   33   57 1
    60   34   58 1
@<TRIPOS>MOLECULE
ZINC39567734
   46    46     0     0     0
SMALL
USER_CHARGES

@<TRIPOS>ATOM
      1 C1         -0.0187    1.5258    0.0104 C.3       1 <0>        -0.1500
      2 C2          0.0021   -0.0041    0.0020 C.3       1 <0>         0.0604
      3 O1          0.6709   -0.4649   -1.1737 O.3       1 <0>        -0.3514
      4 C3          0.7755   -1.7935   -1.3341 C.2       1 <0>         0.4872
      5 O2          0.3143   -2.5404   -0.5039 O.2       1 <0>        -0.4782
      6 C4          1.4679   -2.3535   -2.5498 C.3       1 <0>         0.0687
      7 H1          1.1964   -1.7797   -3.4359 H         1 <0>         0.1495
      8 C5          2.9678   -2.3349   -2.3533 C.2       1 <0>        -0.1345
      9 C6          3.3617   -3.6054   -2.4225 C.2       1 <0>        -0.1196
     10 C7          2.1998   -4.4643   -2.6549 C.2       1 <0>         0.1931
     11 N1          1.1132   -3.7669   -2.7310 N.2       1 <0>        -0.4713
     12 C8          2.2611   -5.9640   -2.7894 C.3       1 <0>        -0.0523
     13 C9          0.8524   -6.5130   -3.0243 C.3       1 <0>         0.0339
     14 H2          0.4084   -6.0170   -3.8874 H         1 <0>         0.1566
     15 C10         0.0234   -6.2624   -1.8341 C.1       1 <0>         0.2103
     16 N2         -0.6165   -6.0690   -0.9156 N.1       1 <0>        -0.3871
     17 C11         0.9276   -7.9961   -3.2809 C.2       1 <0>         0.4734
     18 O3          1.9981   -8.5565   -3.2763 O.2       1 <0>        -0.4770
     19 O4         -0.1946   -8.6945   -3.5145 O.3       1 <0>        -0.3473
     20 C12        -0.0490  -10.0965   -3.7498 C.3       1 <0>         0.0580
     21 C13        -1.4254  -10.7182   -3.9945 C.3       1 <0>        -0.1524
     22 C14         4.7838   -4.0843   -2.2837 C.3       1 <0>        -0.0442
     23 C15         5.0429   -4.4993   -0.8340 C.3       1 <0>        -0.1749
     24 C16         6.4650   -4.9782   -0.6951 C.2       1 <0>         0.4918
     25 O5          7.2029   -4.9868   -1.6657 O.co2     1 <0>        -0.6967
     26 O6          6.8777   -5.3571    0.3878 O.co2     1 <0>        -0.7036
     27 C17         3.8384   -1.1260   -2.1256 C.3       1 <0>        -0.0927
     28 H3          1.0039    1.9031    0.0027 H         1 <0>         0.0680
     29 H4         -0.5459    1.8868   -0.8726 H         1 <0>         0.0659
     30 H5         -0.5289    1.8773    0.9072 H         1 <0>         0.0787
     31 H6          0.5293   -0.3651    0.8851 H         1 <0>         0.0681
     32 H7         -1.0205   -0.3814    0.0098 H         1 <0>         0.0665
     33 H8          2.8990   -6.2273   -3.6331 H         1 <0>         0.1297
     34 H9          2.6711   -6.3943   -1.8757 H         1 <0>         0.1172
     35 H10         0.5817  -10.2545   -4.6246 H         1 <0>         0.0729
     36 H11         0.4118  -10.5650   -2.8801 H         1 <0>         0.0710
     37 H12        -1.8863  -10.2497   -4.8641 H         1 <0>         0.0672
     38 H13        -1.3144  -11.7876   -4.1739 H         1 <0>         0.0802
     39 H14        -2.0562  -10.5601   -3.1197 H         1 <0>         0.0663
     40 H15         4.9452   -4.9390   -2.9407 H         1 <0>         0.0790
     41 H16         5.4664   -3.2804   -2.5590 H         1 <0>         0.0778
     42 H17         4.8816   -3.6447   -0.1770 H         1 <0>         0.0548
     43 H18         4.3603   -5.3033   -0.5587 H         1 <0>         0.0566
     44 H19         3.2198   -0.2285   -2.1204 H         1 <0>         0.0711
     45 H20         4.3487   -1.2210   -1.1671 H         1 <0>         0.0779
     46 H21         4.5763   -1.0540   -2.9245 H         1 <0>         0.0815
@<TRIPOS>BOND
     1    1    2 1
     2    1   28 1
     3    1   29 1
     4    1   30 1
     5    2    3 1
     6    2   31 1
     7    2   32 1
     8    3    4 1
     9    4    5 2
    10    4    6 1
    11    6    7 1
    12    6   11 1
    13    6    8 1
    14    8    9 2
    15    8   27 1
    16    9   10 1
    17    9   22 1
    18   10   11 2
    19   10   12 1
    20   12   13 1
    21   12   33 1
    22   12   34 1
    23   13   14 1
    24   13   15 1
    25   13   17 1
    26   15   16 3
    27   17   18 2
    28   17   19 1
    29   19   20 1
    30   20   21 1
    31   20   35 1
    32   20   36 1
    33   21   37 1
    34   21   38 1
    35   21   39 1
    36   22   23 1
    37   22   40 1
    38   22   41 1
    39   23   24 1
    40   23   42 1
    41   23   43 1
    42   24   25 2
    43   24   26 1
    44   27   44 1
    45   27   45 1
    46   27   46 1
@<TRIPOS>MOLECULE
ZINC40084620
   72    74     0     0     0
SMALL
USER_CHARGES

@<TRIPOS>ATOM
      1 C1          0.2227    0.2362   -1.5358 C.3       1 <0>        -0.1482
      2 C2          0.5162   -1.2464   -1.2978 C.3       1 <0>        -0.1189
      3 C3          0.9599   -1.4522    0.1519 C.3       1 <0>        -0.1427
      4 C4          1.2535   -2.9348    0.3899 C.3       1 <0>         0.1395
      5 N1          1.6783   -3.1318    1.7780 N.am      1 <0>        -0.6081
      6 C5          3.0574   -3.0702    2.2761 C.3       1 <0>         0.2589
      7 H1          3.6664   -3.8316    1.7886 H         1 <0>         0.0635
      8 C6          2.9813   -3.3383    3.7611 C.2       1 <0>        -0.4751
      9 C7          1.6748   -3.5309    4.0567 C.2       1 <0>         0.2759
     10 C8          0.8727   -3.3956    2.8228 C.2       1 <0>         0.5063
     11 O1         -0.3354   -3.5086    2.7605 O.2       1 <0>        -0.5381
     12 O2          1.1809   -3.8002    5.2872 O.3       1 <0>        -0.6147
     13 C9          4.1061   -3.3813    4.7008 C.2       1 <0>         0.4668
     14 O3          3.8981   -3.5020    5.8938 O.2       1 <0>        -0.4911
     15 C10         5.4908   -3.2784    4.1998 C.ar      1 <0>        -0.1347
     16 C11         6.2123   -2.0928    4.3718 C.ar      1 <0>        -0.0412
     17 C12         7.5032   -2.0010    3.9031 C.ar      1 <0>        -0.1545
     18 C13         8.0899   -3.0849    3.2588 C.ar      1 <0>         0.1281
     19 C14         7.3761   -4.2653    3.0858 C.ar      1 <0>        -0.2151
     20 C15         6.0865   -4.3677    3.5571 C.ar      1 <0>        -0.0222
     21 C16         5.3159   -5.6498    3.3745 C.3       1 <0>        -0.1174
     22 O4          9.3624   -2.9899    2.7974 O.3       1 <0>        -0.3130
     23 C17         9.8624   -4.0944    2.0410 C.3       1 <0>         0.0769
     24 C18        10.9564   -3.6070    1.0890 C.3       1 <0>        -0.1476
     25 C19        10.4438   -5.1424    2.9922 C.3       1 <0>        -0.1798
     26 C20         3.6388   -1.7029    2.0242 C.ar      1 <0>        -0.1190
     27 C21         2.9212   -0.5733    2.3729 C.ar      1 <0>        -0.0424
     28 C22         3.4510    0.6813    2.1434 C.ar      1 <0>        -0.1990
     29 C23         4.7061    0.8078    1.5617 C.ar      1 <0>         0.2091
     30 C24         5.4242   -0.3290    1.2128 C.ar      1 <0>        -0.1930
     31 C25         4.8909   -1.5806    1.4502 C.ar      1 <0>        -0.0572
     32 N2          5.2447    2.0751    1.3278 N.pl3     1 <0>        -0.6315
     33 C26         6.5685    2.2066    0.7143 C.3       1 <0>         0.1230
     34 C27         6.4214    2.2693   -0.8073 C.3       1 <0>        -0.1707
     35 C28         4.4857    3.2729    1.6961 C.3       1 <0>         0.1232
     36 C29         4.8295    3.6729    3.1323 C.3       1 <0>        -0.1727
     37 H2          1.1232    0.8200   -1.3451 H         1 <0>         0.0524
     38 H3         -0.0934    0.3828   -2.5686 H         1 <0>         0.0490
     39 H4         -0.5708    0.5620   -0.8632 H         1 <0>         0.0522
     40 H5         -0.3843   -1.8303   -1.4885 H         1 <0>         0.0590
     41 H6          1.3097   -1.5722   -1.9704 H         1 <0>         0.0589
     42 H7          1.8604   -0.8684    0.3426 H         1 <0>         0.0770
     43 H8          0.1664   -1.1264    0.8245 H         1 <0>         0.0625
     44 H9          0.3530   -3.5186    0.1992 H         1 <0>         0.0732
     45 H10         2.0469   -3.2606   -0.2827 H         1 <0>         0.0709
     46 H11         5.7572   -1.2504    4.8714 H         1 <0>         0.1229
     47 H12         8.0611   -1.0858    4.0355 H         1 <0>         0.1222
     48 H13         7.8352   -5.1046    2.5846 H         1 <0>         0.1247
     49 H14         4.8208   -5.6410    2.4034 H         1 <0>         0.0739
     50 H15         6.0011   -6.4960    3.4253 H         1 <0>         0.0607
     51 H16         4.5683   -5.7398    4.1626 H         1 <0>         0.0749
     52 H17         9.0502   -4.5375    1.4648 H         1 <0>         0.0738
     53 H18        11.7686   -3.1639    1.6652 H         1 <0>         0.0643
     54 H19        11.3378   -4.4496    0.5120 H         1 <0>         0.0732
     55 H20        10.5423   -2.8604    0.4113 H         1 <0>         0.0636
     56 H21         9.6643   -5.4896    3.6705 H         1 <0>         0.0649
     57 H22        10.8251   -5.9849    2.4153 H         1 <0>         0.0681
     58 H23        11.2560   -4.6993    3.5685 H         1 <0>         0.0647
     59 H24         1.9453   -0.6723    2.8247 H         1 <0>         0.1115
     60 H25         2.8899    1.5631    2.4156 H         1 <0>         0.1132
     61 H26         6.4001   -0.2342    0.7600 H         1 <0>         0.1128
     62 H27         5.4505   -2.4649    1.1831 H         1 <0>         0.1106
     63 H28         7.0453    3.1195    1.0712 H         1 <0>         0.0660
     64 H29         7.1814    1.3468    0.9849 H         1 <0>         0.0745
     65 H30         7.4063    2.3671   -1.2638 H         1 <0>         0.0585
     66 H31         5.9446    1.3564   -1.1642 H         1 <0>         0.0590
     67 H32         5.8085    3.1291   -1.0780 H         1 <0>         0.0520
     68 H33         4.7434    4.0883    1.0202 H         1 <0>         0.0657
     69 H34         3.4185    3.0636    1.6227 H         1 <0>         0.0732
     70 H35         4.2648    4.5641    3.4063 H         1 <0>         0.0590
     71 H36         4.5718    2.8575    3.8081 H         1 <0>         0.0613
     72 H37         5.8967    3.8821    3.2057 H         1 <0>         0.0528
@<TRIPOS>BOND
     1    1    2 1
     2    1   37 1
     3    1   38 1
     4    1   39 1
     5    2    3 1
     6    2   40 1
     7    2   41 1
     8    3    4 1
     9    3   42 1
    10    3   43 1
    11    4    5 1
    12    4   44 1
    13    4   45 1
    14    5   10 am
    15    5    6 1
    16    6    7 1
    17    6    8 1
    18    6   26 1
    19    8    9 2
    20    8   13 1
    21    9   10 1
    22    9   12 1
    23   10   11 2
    24   13   14 2
    25   13   15 1
    26   15   20 ar
    27   15   16 ar
    28   16   17 ar
    29   16   46 1
    30   17   18 ar
    31   17   47 1
    32   18   19 ar
    33   18   22 1
    34   19   20 ar
    35   19   48 1
    36   20   21 1
    37   21   49 1
    38   21   50 1
    39   21   51 1
    40   22   23 1
    41   23   24 1
    42   23   25 1
    43   23   52 1
    44   24   53 1
    45   24   54 1
    46   24   55 1
    47   25   56 1
    48   25   57 1
    49   25   58 1
    50   26   31 ar
    51   26   27 ar
    52   27   28 ar
    53   27   59 1
    54   28   29 ar
    55   28   60 1
    56   29   30 ar
    57   29   32 1
    58   30   31 ar
    59   30   61 1
    60   31   62 1
    61   32   33 1
    62   32   35 1
    63   33   34 1
    64   33   63 1
    65   33   64 1
    66   34   65 1
    67   34   66 1
    68   34   67 1
    69   35   36 1
    70   35   68 1
    71   35   69 1
    72   36   70 1
    73   36   71 1
    74   36   72 1
@<TRIPOS>MOLECULE
ZINC59437163
   60    62     0     0     0
SMALL
USER_CHARGES

@<TRIPOS>ATOM
      1 C1         -0.1258    1.7101   -0.1577 C.3       1 <0>        -0.1457
      2 C2         -0.1778    0.1820   -0.2137 C.3       1 <0>        -0.0778
      3 C3          0.5364   -0.2999   -1.4501 C.ar      1 <0>        -0.1179
      4 C4         -0.1647   -0.4570   -2.6330 C.ar      1 <0>        -0.1013
      5 C5          0.4819   -0.8972   -3.7686 C.ar      1 <0>        -0.1217
      6 C6          1.8494   -1.1850   -3.7229 C.ar      1 <0>         0.1266
      7 C7          2.5508   -1.0238   -2.5241 C.ar      1 <0>        -0.1639
      8 C8          1.8913   -0.5777   -1.3982 C.ar      1 <0>        -0.0944
      9 N1          2.4964   -1.6216   -4.8429 N.2       1 <0>        -0.4920
     10 C9          3.6691   -1.1099   -5.1697 C.2       1 <0>         0.3051
     11 C10         4.5254   -1.4278   -6.3234 C.2       1 <0>        -0.4219
     12 C11         5.7059   -0.7382   -6.4224 C.2       1 <0>         0.3469
     13 O1          6.5540   -0.9660   -7.4507 O.3       1 <0>        -0.5801
     14 C12         6.0187    0.2177   -5.4259 C.2       1 <0>        -0.1164
     15 C13         7.1264    1.0068   -5.3309 C.2       1 <0>        -0.0193
     16 C14         7.1938    2.0557   -4.3086 C.ar      1 <0>        -0.0747
     17 C15         6.0173    2.5466   -3.7257 C.ar      1 <0>        -0.0605
     18 C16         6.0863    3.5312   -2.7667 C.ar      1 <0>        -0.1914
     19 C17         7.3198    4.0394   -2.3752 C.ar      1 <0>         0.1356
     20 C18         8.4913    3.5569   -2.9501 C.ar      1 <0>        -0.0628
     21 C19         8.4350    2.5672   -3.9064 C.ar      1 <0>        -0.0535
     22 Cl1        10.0271    4.1977   -2.4556 Cl        1 <0>        -0.0551
     23 O2          7.3813    5.0107   -1.4285 O.3       1 <0>        -0.2834
     24 C20         6.1412    5.4612   -0.8797 C.3       1 <0>         0.0660
     25 C21         6.4058    6.5321    0.1471 C.2       1 <0>         0.4648
     26 O3          7.5400    6.8744    0.3845 O.2       1 <0>        -0.4790
     27 O4          5.3815    7.1057    0.7978 O.3       1 <0>        -0.3491
     28 C22         5.7056    8.1136    1.7577 C.3       1 <0>         0.0616
     29 C23         4.4191    8.6467    2.3915 C.3       1 <0>        -0.1524
     30 S1          4.6145    0.1483   -4.3288 S.3       1 <0>        -0.1166
     31 C24         4.1362   -2.4306   -7.3155 C.2       1 <0>         0.5371
     32 O5          4.8674   -2.6696   -8.2578 O.2       1 <0>        -0.5306
     33 O6          2.9665   -3.0900   -7.1850 O.3       1 <0>        -0.3411
     34 C25         2.6504   -4.0553   -8.1902 C.3       1 <0>         0.0631
     35 C26         1.2965   -4.6946   -7.8754 C.3       1 <0>        -0.1437
     36 H1          0.9135    2.0374   -0.1278 H         1 <0>         0.0548
     37 H2         -0.6114    2.1228   -1.0420 H         1 <0>         0.0545
     38 H3         -0.6424    2.0587    0.7366 H         1 <0>         0.0520
     39 H4          0.3078   -0.2307    0.6706 H         1 <0>         0.0657
     40 H5         -1.2171   -0.1453   -0.2436 H         1 <0>         0.0657
     41 H6         -1.2210   -0.2347   -2.6666 H         1 <0>         0.1168
     42 H7         -0.0665   -1.0196   -4.6909 H         1 <0>         0.1225
     43 H8          3.6071   -1.2444   -2.4811 H         1 <0>         0.1248
     44 H9          2.4326   -0.4485   -0.4727 H         1 <0>         0.1148
     45 H10         7.9543    0.8594   -6.0086 H         1 <0>         0.1529
     46 H11         5.0584    2.1531   -4.0290 H         1 <0>         0.1539
     47 H12         5.1803    3.9101   -2.3174 H         1 <0>         0.1406
     48 H13         9.3451    2.1894   -4.3485 H         1 <0>         0.1475
     49 H14         5.5177    5.8675   -1.6761 H         1 <0>         0.1109
     50 H15         5.6274    4.6240   -0.4073 H         1 <0>         0.1114
     51 H16         6.3423    7.6862    2.5323 H         1 <0>         0.0701
     52 H17         6.2325    8.9298    1.2636 H         1 <0>         0.0699
     53 H18         4.6663    9.4155    3.1236 H         1 <0>         0.0809
     54 H19         3.7824    9.0740    1.6168 H         1 <0>         0.0680
     55 H20         3.8921    7.8304    2.8855 H         1 <0>         0.0682
     56 H21         2.6035   -3.5652   -9.1626 H         1 <0>         0.0526
     57 H22         3.4207   -4.8262   -8.2086 H         1 <0>         0.0525
     58 H23         1.3434   -5.1847   -6.9029 H         1 <0>         0.0615
     59 H24         0.5261   -3.9237   -7.8569 H         1 <0>         0.0616
     60 H25         1.0553   -5.4309   -8.6421 H         1 <0>         0.0659
@<TRIPOS>BOND
     1    1    2 1
     2    1   36 1
     3    1   37 1
     4    1   38 1
     5    2    3 1
     6    2   39 1
     7    2   40 1
     8    3    8 ar
     9    3    4 ar
    10    4    5 ar
    11    4   41 1
    12    5    6 ar
    13    5   42 1
    14    6    7 ar
    15    6    9 1
    16    7    8 ar
    17    7   43 1
    18    8   44 1
    19    9   10 2
    20   10   30 1
    21   10   11 1
    22   11   12 2
    23   11   31 1
    24   12   13 1
    25   12   14 1
    26   14   15 2
    27   14   30 1
    28   15   16 1
    29   15   45 1
    30   16   21 ar
    31   16   17 ar
    32   17   18 ar
    33   17   46 1
    34   18   19 ar
    35   18   47 1
    36   19   20 ar
    37   19   23 1
    38   20   21 ar
    39   20   22 1
    40   21   48 1
    41   23   24 1
    42   24   25 1
    43   24   49 1
    44   24   50 1
    45   25   26 2
    46   25   27 1
    47   27   28 1
    48   28   29 1
    49   28   51 1
    50   28   52 1
    51   29   53 1
    52   29   54 1
    53   29   55 1
    54   31   32 2
    55   31   33 1
    56   33   34 1
    57   34   35 1
    58   34   56 1
    59   34   57 1
    60   35   58 1
    61   35   59 1
    62   35   60 1
@<TRIPOS>MOLECULE
ZINC13422316
   49    52     0     0     0
SMALL
USER_CHARGES
4-[2-[1-(1,3-benzodioxol-5-yl)-2,5-dimethyl-pyrrol-3-yl]-2-oxo-ethoxy]benzene-1,3-dicarboxylic acid
@<TRIPOS>ATOM
      1 C1         -7.4487   -1.1782    0.0321 C.3       1 <0>        -0.0835
      2 C2         -6.6320    0.0883    0.0343 C.2       1 <0>         0.0065
      3 C3         -5.2898    0.1494    0.0285 C.2       1 <0>        -0.1407
      4 C4         -4.9394    1.5762    0.0340 C.2       1 <0>        -0.2377
      5 C5         -6.1402    2.2614    0.0490 C.2       1 <0>         0.1116
      6 N1         -7.1387    1.3577    0.0430 N.pl3     1 <0>        -0.3981
      7 C6         -8.5052    1.6743    0.0501 C.ar      1 <0>         0.1322
      8 C7         -9.0623    2.3206    1.1452 C.ar      1 <0>        -0.0965
      9 C8        -10.4079    2.6335    1.1537 C.ar      1 <0>        -0.0858
     10 C9        -11.2053    2.3033    0.0695 C.ar      1 <0>         0.0385
     11 C10       -10.6492    1.6544   -1.0305 C.ar      1 <0>         0.0451
     12 C11        -9.2991    1.3463   -1.0401 C.ar      1 <0>        -0.0914
     13 O1        -11.6312    1.4431   -1.9549 O.3       1 <0>        -0.3042
     14 C12       -12.8716    1.6008   -1.2411 C.3       1 <0>         0.2130
     15 O2        -12.5362    2.4985   -0.1665 O.3       1 <0>        -0.3059
     16 C13        -6.3034    3.7595    0.0652 C.3       1 <0>        -0.0985
     17 C14        -3.5941    2.1541    0.0308 C.2       1 <0>         0.4164
     18 O3         -3.4514    3.3591    0.0367 O.2       1 <0>        -0.4205
     19 C15        -2.3867    1.2523    0.0202 C.3       1 <0>         0.0249
     20 O4         -1.1989    2.0467    0.0189 O.3       1 <0>        -0.2543
     21 C16        -0.0168    1.3854    0.0097 C.ar      1 <0>         0.1482
     22 C17         0.0021   -0.0041    0.0020 C.ar      1 <0>        -0.2514
     23 C18         1.2000   -0.6810   -0.0131 C.ar      1 <0>        -0.0406
     24 C19         2.4093    0.0250   -0.0213 C.ar      1 <0>        -0.1764
     25 C20         2.4026    1.4182   -0.0137 C.ar      1 <0>        -0.0022
     26 C21         1.1897    2.1038    0.0020 C.ar      1 <0>        -0.1658
     27 C22         1.1731    3.5781    0.0106 C.2       1 <0>         0.4949
     28 O5          0.1141    4.1737    0.0243 O.co2     1 <0>        -0.6166
     29 C23         3.6902   -0.7063   -0.0374 C.2       1 <0>         0.4996
     30 O6          4.7395   -0.0938   -0.0446 O.co2     1 <0>        -0.6352
     31 H1         -7.6405   -1.4886    1.0592 H         1 <0>         0.0710
     32 H2         -8.3960   -0.9988   -0.4762 H         1 <0>         0.0607
     33 H3         -6.9001   -1.9634   -0.4883 H         1 <0>         0.0839
     34 H4         -4.6042   -0.6851    0.0214 H         1 <0>         0.1550
     35 H5         -8.4429    2.5794    1.9913 H         1 <0>         0.1491
     36 H6        -10.8389    3.1367    2.0065 H         1 <0>         0.1467
     37 H7         -8.8649    0.8478   -1.8941 H         1 <0>         0.1446
     38 H8        -13.2117    0.6428   -0.8478 H         1 <0>         0.0868
     39 H9        -13.6312    2.0425   -1.8861 H         1 <0>         0.1340
     40 H10        -6.3502    4.1309   -0.9585 H         1 <0>         0.0802
     41 H11        -7.2238    4.0191    0.5883 H         1 <0>         0.0636
     42 H12        -5.4544    4.2119    0.5775 H         1 <0>         0.1059
     43 H13        -2.4056    0.6796   -0.7993 H         1 <0>         0.0758
     44 H14        -2.3989    0.6184    0.9068 H         1 <0>         0.0833
     45 H15        -0.9270   -0.5547    0.0076 H         1 <0>         0.1141
     46 H16         1.2076   -1.7610   -0.0189 H         1 <0>         0.1245
     47 H17         3.3341    1.9648   -0.0204 H         1 <0>         0.1410
     48 O7          2.3323    4.2650    0.0032 O.co2     1 <0>        -0.7697
     49 O8          3.6967   -2.0537   -0.0443 O.co2     1 <0>        -0.7761
@<TRIPOS>BOND
     1    1    2 1
     2    1   31 1
     3    1   32 1
     4    1   33 1
     5    2    6 1
     6    2    3 2
     7    3    4 1
     8    3   34 1
     9    4    5 2
    10    4   17 1
    11    5    6 1
    12    5   16 1
    13    6    7 1
    14    7   12 ar
    15    7    8 ar
    16    8    9 ar
    17    8   35 1
    18    9   10 ar
    19    9   36 1
    20   10   15 1
    21   10   11 ar
    22   11   12 ar
    23   11   13 1
    24   12   37 1
    25   13   14 1
    26   14   15 1
    27   14   38 1
    28   14   39 1
    29   16   40 1
    30   16   41 1
    31   16   42 1
    32   17   18 2
    33   17   19 1
    34   19   20 1
    35   19   43 1
    36   19   44 1
    37   20   21 1
    38   21   26 ar
    39   21   22 ar
    40   22   23 ar
    41   22   45 1
    42   23   24 ar
    43   23   46 1
    44   24   25 ar
    45   24   29 1
    46   25   26 ar
    47   25   47 1
    48   26   27 1
    49   27   28 2
    50   27   48 1
    51   29   30 2
    52   29   49 1
@<TRIPOS>MOLECULE
ZINC16932038
   49    51     0     0     0
SMALL
USER_CHARGES
2-[[(5Z)-3-ethyl-5-[[2-[(1R)-2-hydroxy-1-methyl-2-oxo-ethoxy]phenyl]methylene]-4-oxo-thiazolidin-2-ylidene]amino]benzoic acid
@<TRIPOS>ATOM
      1 C1         -2.1315   -3.4071    1.0730 C.3       1 <0>        -0.1680
      2 C2         -2.7540   -3.1987   -0.3090 C.3       1 <0>         0.1083
      3 N1         -3.8863   -2.2755   -0.2003 N.am      1 <0>        -0.5370
      4 C3         -5.0981   -2.7510    0.0320 C.2       1 <0>         0.5591
      5 O1         -5.2999   -3.9446    0.1586 O.2       1 <0>        -0.4956
      6 C4         -6.1944   -1.7689    0.1302 C.2       1 <0>        -0.2252
      7 C5         -7.5169   -1.9737    0.3595 C.2       1 <0>         0.0817
      8 C6         -8.4651   -0.8607    0.2308 C.ar      1 <0>        -0.1299
      9 C7         -8.1066    0.2918   -0.4784 C.ar      1 <0>        -0.0535
     10 C8         -9.0039    1.3302   -0.5989 C.ar      1 <0>        -0.1711
     11 C9        -10.2564    1.2439   -0.0128 C.ar      1 <0>        -0.0575
     12 C10       -10.6220    0.1148    0.6950 C.ar      1 <0>        -0.2246
     13 C11        -9.7360   -0.9426    0.8232 C.ar      1 <0>         0.1801
     14 O2        -10.0945   -2.0523    1.5175 O.3       1 <0>        -0.2764
     15 C12       -11.4431   -2.1173    1.9855 C.3       1 <0>         0.0360
     16 H1        -12.1033   -1.6445    1.2583 H         1 <0>         0.0762
     17 C13       -11.5538   -1.3868    3.3253 C.3       1 <0>        -0.1577
     18 C14       -11.8437   -3.5590    2.1648 C.2       1 <0>         0.4735
     19 O3        -11.0291   -4.4368    2.0046 O.co2     1 <0>        -0.6089
     20 S1         -5.3118   -0.2363   -0.1263 S.3       1 <0>        -0.0552
     21 C15        -3.6777   -0.9228   -0.3415 C.2       1 <0>         0.3762
     22 N2         -2.5467   -0.2883   -0.5733 N.2       1 <0>        -0.3992
     23 C16        -2.5324    1.0699   -0.6518 C.ar      1 <0>         0.1215
     24 C17        -3.4157    1.7358   -1.5074 C.ar      1 <0>        -0.1596
     25 C18        -3.3965    3.1104   -1.5820 C.ar      1 <0>        -0.1060
     26 C19        -2.5054    3.8461   -0.8131 C.ar      1 <0>        -0.1454
     27 C20        -1.6297    3.2135    0.0406 C.ar      1 <0>        -0.0680
     28 C21        -1.6260    1.8186    0.1302 C.ar      1 <0>        -0.0981
     29 C22        -0.6898    1.1366    1.0361 C.2       1 <0>         0.4866
     30 O4         -0.6942   -0.0765    1.1140 O.co2     1 <0>        -0.6011
     31 H2         -1.2890   -4.0940    0.9921 H         1 <0>         0.0671
     32 H3         -1.7841   -2.4504    1.4630 H         1 <0>         0.0839
     33 H4         -2.8778   -3.8254    1.7483 H         1 <0>         0.0517
     34 H5         -3.1014   -4.1554   -0.6991 H         1 <0>         0.0859
     35 H6         -2.0077   -2.7804   -0.9844 H         1 <0>         0.0954
     36 H7         -7.8712   -2.9556    0.6367 H         1 <0>         0.1640
     37 H8         -7.1300    0.3651   -0.9337 H         1 <0>         0.1419
     38 H9         -8.7283    2.2174   -1.1496 H         1 <0>         0.1254
     39 H10       -10.9516    2.0647   -0.1095 H         1 <0>         0.1238
     40 H11       -11.6003    0.0563    1.1489 H         1 <0>         0.1358
     41 H12       -12.5825   -1.4363    3.6822 H         1 <0>         0.0777
     42 H13       -10.8937   -1.8595    4.0525 H         1 <0>         0.0622
     43 H14       -11.2641   -0.3440    3.1956 H         1 <0>         0.0521
     44 H15        -4.1129    1.1720   -2.1093 H         1 <0>         0.1224
     45 H16        -4.0807    3.6204   -2.2439 H         1 <0>         0.1182
     46 H17        -2.5017    4.9239   -0.8820 H         1 <0>         0.1172
     47 H18        -0.9429    3.7949    0.6378 H         1 <0>         0.1343
     48 O5        -13.1056   -3.8679    2.5025 O.co2     1 <0>        -0.7558
     49 O6          0.1771    1.8564    1.7762 O.co2     1 <0>        -0.7645
@<TRIPOS>BOND
     1    1    2 1
     2    1   31 1
     3    1   32 1
     4    1   33 1
     5    2    3 1
     6    2   34 1
     7    2   35 1
     8    3   21 1
     9    3    4 am
    10    4    5 2
    11    4    6 1
    12    6    7 2
    13    6   20 1
    14    7    8 1
    15    7   36 1
    16    8   13 ar
    17    8    9 ar
    18    9   10 ar
    19    9   37 1
    20   10   11 ar
    21   10   38 1
    22   11   12 ar
    23   11   39 1
    24   12   13 ar
    25   12   40 1
    26   13   14 1
    27   14   15 1
    28   15   16 1
    29   15   17 1
    30   15   18 1
    31   17   41 1
    32   17   42 1
    33   17   43 1
    34   18   19 2
    35   18   48 1
    36   20   21 1
    37   21   22 2
    38   22   23 1
    39   23   28 ar
    40   23   24 ar
    41   24   25 ar
    42   24   44 1
    43   25   26 ar
    44   25   45 1
    45   26   27 ar
    46   26   46 1
    47   27   28 ar
    48   27   47 1
    49   28   29 1
    50   29   30 2
    51   29   49 1
@<TRIPOS>MOLECULE
ZINC13092709
   38    39     0     0     0
SMALL
USER_CHARGES

@<TRIPOS>ATOM
      1 C1         -0.0067    1.5323    0.0160 C.3       1 <0>        -0.1411
      2 C2          0.0034    0.0024    0.0037 C.3       1 <0>        -0.1064
      3 H1         -1.0218   -0.3678    0.0119 H         1 <0>         0.1208
      4 C3          0.7304   -0.5049    1.2224 C.2       1 <0>         0.5442
      5 O1          1.9084   -0.7851    1.1529 O.2       1 <0>        -0.4960
      6 N1          0.0715   -0.6474    2.3895 N.am      1 <0>        -0.6700
      7 C4          0.7200   -1.2088    3.4950 C.ar      1 <0>         0.1838
      8 C5          0.0148   -2.0130    4.3805 C.ar      1 <0>        -0.1345
      9 C6          0.6579   -2.5669    5.4716 C.ar      1 <0>        -0.0047
     10 C7          2.0033   -2.3204    5.6818 C.ar      1 <0>        -0.1236
     11 C8          2.7082   -1.5190    4.8011 C.ar      1 <0>        -0.0042
     12 C9          2.0711   -0.9674    3.7053 C.ar      1 <0>        -0.1105
     13 Cl1         4.3957   -1.2118    5.0687 Cl        1 <0>        -0.0543
     14 Cl2        -0.2231   -3.5719    6.5794 Cl        1 <0>        -0.0572
     15 S1          0.8464   -0.5847   -1.4913 S.3       1 <0>         0.0232
     16 C10        -0.1920   -0.0419   -2.8072 C.ar      1 <0>         0.2530
     17 N2          0.1435   -0.3133   -4.0627 N.ar      1 <0>        -0.5765
     18 C11        -0.6433    0.0985   -5.0508 C.ar      1 <0>         0.4213
     19 O2         -0.3262   -0.1644   -6.3419 O.3       1 <0>        -0.6577
     20 C12        -1.8029    0.8069   -4.7330 C.ar      1 <0>        -0.0370
     21 N3         -2.0843    1.0468   -3.4660 N.ar      1 <0>        -0.2059
     22 N4         -1.3038    0.6292   -2.5317 N.ar      1 <0>        -0.4071
     23 C13        -2.7226    1.2925   -5.8235 C.3       1 <0>        -0.0107
     24 C14        -3.7709    0.2189   -6.1223 C.3       1 <0>        -0.1652
     25 C15        -4.6906    0.7046   -7.2128 C.2       1 <0>         0.4976
     26 O3         -4.5232    1.8073   -7.7053 O.co2     1 <0>        -0.7013
     27 O4         -5.6021   -0.0052   -7.6026 O.co2     1 <0>        -0.7189
     28 H2          1.0185    1.9025    0.0079 H         1 <0>         0.0650
     29 H3         -0.5325    1.8993   -0.8654 H         1 <0>         0.1017
     30 H4         -0.5132    1.8851    0.9144 H         1 <0>         0.0590
     31 H5         -0.8522   -0.3607    2.4630 H         1 <0>         0.4197
     32 H6         -1.0353   -2.2054    4.2170 H         1 <0>         0.1456
     33 H7          2.5039   -2.7541    6.5349 H         1 <0>         0.1433
     34 H8          2.6229   -0.3459    3.0156 H         1 <0>         0.1600
     35 H9         -3.2206    2.2061   -5.4987 H         1 <0>         0.0618
     36 H10        -2.1431    1.4952   -6.7241 H         1 <0>         0.0770
     37 H11        -3.2729   -0.6947   -6.4471 H         1 <0>         0.0560
     38 H12        -4.3504    0.0162   -5.2217 H         1 <0>         0.0497
@<TRIPOS>BOND
     1    1    2 1
     2    1   28 1
     3    1   29 1
     4    1   30 1
     5    2    3 1
     6    2    4 1
     7    2   15 1
     8    4    5 2
     9    4    6 am
    10    6    7 1
    11    6   31 1
    12    7   12 ar
    13    7    8 ar
    14    8    9 ar
    15    8   32 1
    16    9   10 ar
    17    9   14 1
    18   10   11 ar
    19   10   33 1
    20   11   12 ar
    21   11   13 1
    22   12   34 1
    23   15   16 1
    24   16   17 ar
    25   16   22 ar
    26   17   18 ar
    27   18   19 1
    28   18   20 ar
    29   20   21 ar
    30   20   23 1
    31   21   22 ar
    32   23   24 1
    33   23   35 1
    34   23   36 1
    35   24   25 1
    36   24   37 1
    37   24   38 1
    38   25   26 2
    39   25   27 1
@<TRIPOS>MOLECULE
ZINC16916151
   48    50     0     0     0
SMALL
USER_CHARGES

@<TRIPOS>ATOM
      1 C1         -0.8448   -4.9713   -5.9689 C.3       1 <0>        -0.1458
      2 C2         -0.6117   -4.8609   -4.4608 C.3       1 <0>         0.0518
      3 O1          0.1398   -3.6783   -4.1804 O.3       1 <0>        -0.3006
      4 C3          0.4350   -3.4291   -2.8764 C.ar      1 <0>         0.0808
      5 C4          0.0161   -4.3047   -1.8945 C.ar      1 <0>        -0.0896
      6 C5          0.3220   -4.0447   -0.5529 C.ar      1 <0>        -0.0850
      7 C6          1.0512   -2.8978   -0.2151 C.ar      1 <0>        -0.0907
      8 C7          1.4648   -2.0302   -1.2017 C.ar      1 <0>        -0.2023
      9 C8          1.1656   -2.2922   -2.5322 C.ar      1 <0>         0.1229
     10 O2          1.5816   -1.4357   -3.5010 O.3       1 <0>        -0.2707
     11 C9          2.3255   -0.2909   -3.0791 C.3       1 <0>        -0.0067
     12 C10         2.6985    0.5370   -4.2818 C.2       1 <0>         0.5020
     13 O3          2.3586    0.1798   -5.3969 O.co2     1 <0>        -0.6690
     14 O4          3.3400    1.5640   -4.1398 O.co2     1 <0>        -0.6963
     15 C11        -0.1208   -4.9714    0.4963 C.2       1 <0>         0.0036
     16 C12        -0.1372   -6.3076    0.2589 C.2       1 <0>        -0.2021
     17 C13         0.3909   -7.0732   -0.8945 C.2       1 <0>         0.5243
     18 O5          0.9455   -6.5234   -1.8328 O.2       1 <0>        -0.5205
     19 N1          0.2297   -8.3772   -0.8516 N.2       1 <0>        -0.7148
     20 C14        -0.3694   -8.9859    0.1598 C.2       1 <0>         0.4471
     21 S1         -0.7955   -7.6400    1.2539 S.3       1 <0>        -0.1493
     22 N2         -0.6016  -10.3258    0.3292 N.2       1 <0>        -0.5616
     23 C15        -0.0162  -11.2532   -0.5411 C.ar      1 <0>         0.1410
     24 C16         1.1524  -10.9318   -1.2167 C.ar      1 <0>        -0.1242
     25 C17         1.7282  -11.8490   -2.0752 C.ar      1 <0>        -0.1368
     26 C18         1.1427  -13.0875   -2.2634 C.ar      1 <0>        -0.1378
     27 C19        -0.0217  -13.4149   -1.5938 C.ar      1 <0>        -0.2005
     28 C20        -0.6023  -12.5034   -0.7269 C.ar      1 <0>         0.0980
     29 O6         -1.7445  -12.8261   -0.0634 O.3       1 <0>        -0.2998
     30 C21        -2.2890  -14.1254   -0.3029 C.3       1 <0>         0.0296
     31 H1         -1.3979   -4.0986   -6.3160 H         1 <0>         0.0617
     32 H2          0.1155   -5.0207   -6.4824 H         1 <0>         0.0650
     33 H3         -1.4180   -5.8734   -6.1829 H         1 <0>         0.0697
     34 H4         -1.5719   -4.8115   -3.9474 H         1 <0>         0.0493
     35 H5         -0.0586   -5.7337   -4.1138 H         1 <0>         0.0714
     36 H6         -0.5463   -5.1876   -2.1604 H         1 <0>         0.1383
     37 H7          1.2888   -2.6936    0.8184 H         1 <0>         0.1206
     38 H8          2.0271   -1.1460   -0.9401 H         1 <0>         0.1315
     39 H9          1.7178    0.3074   -2.4004 H         1 <0>         0.0562
     40 H10         3.2311   -0.6149   -2.5661 H         1 <0>         0.0567
     41 H11        -0.4334   -4.5897    1.4571 H         1 <0>         0.1278
     42 H12         1.6117   -9.9651   -1.0719 H         1 <0>         0.1439
     43 H13         2.6376  -11.5976   -2.6007 H         1 <0>         0.1098
     44 H14         1.5961  -13.8009   -2.9356 H         1 <0>         0.1083
     45 H15        -0.4763  -14.3831   -1.7431 H         1 <0>         0.1152
     46 H16        -2.5257  -14.2307   -1.3617 H         1 <0>         0.0446
     47 H17        -1.5598  -14.8834   -0.0166 H         1 <0>         0.0445
     48 H18        -3.1967  -14.2534    0.2868 H         1 <0>         0.0885
@<TRIPOS>BOND
     1    1    2 1
     2    1   31 1
     3    1   32 1
     4    1   33 1
     5    2    3 1
     6    2   34 1
     7    2   35 1
     8    3    4 1
     9    4    9 ar
    10    4    5 ar
    11    5    6 ar
    12    5   36 1
    13    6    7 ar
    14    6   15 1
    15    7    8 ar
    16    7   37 1
    17    8    9 ar
    18    8   38 1
    19    9   10 1
    20   10   11 1
    21   11   12 1
    22   11   39 1
    23   11   40 1
    24   12   13 2
    25   12   14 1
    26   15   16 2
    27   15   41 1
    28   16   21 1
    29   16   17 1
    30   17   18 2
    31   17   19 1
    32   19   20 2
    33   20   21 1
    34   20   22 1
    35   22   23 1
    36   23   28 ar
    37   23   24 ar
    38   24   25 ar
    39   24   42 1
    40   25   26 ar
    41   25   43 1
    42   26   27 ar
    43   26   44 1
    44   27   28 ar
    45   27   45 1
    46   28   29 1
    47   29   30 1
    48   30   46 1
    49   30   47 1
    50   30   48 1
@<TRIPOS>MOLECULE
ZINC28567999
   52    54     0     0     0
SMALL
USER_CHARGES

@<TRIPOS>ATOM
      1 C1         -0.1441    1.4933    0.1305 C.3       1 <0>        -0.0622
      2 C2         -0.0589   -0.0096    0.0596 C.2       1 <0>         0.1718
      3 C3         -1.2260   -0.7406   -0.0024 C.2       1 <0>        -0.2761
      4 C4         -1.1020   -2.2518   -0.0733 C.3       1 <0>         0.1242
      5 H1         -1.6355   -2.6776    0.7765 H         1 <0>         0.0407
      6 C5          0.3136   -2.8007   -0.0680 C.2       1 <0>        -0.4177
      7 C6          0.5586   -4.1563   -0.1290 C.2       1 <0>         0.4529
      8 O1         -0.4662   -5.0291   -0.0740 O.3       1 <0>        -0.6682
      9 O2          1.8228   -4.6079   -0.2437 O.3       1 <0>        -0.3329
     10 C7          2.0029   -6.0243   -0.3014 C.3       1 <0>         0.0929
     11 C8          3.4712   -6.3392   -0.4281 C.2       1 <0>        -0.1098
     12 C9          4.0104   -7.2959    0.3143 C.2       1 <0>        -0.1366
     13 C10         5.4505   -7.6048    0.1900 C.ar      1 <0>        -0.0387
     14 C11         6.2464   -6.8873   -0.7038 C.ar      1 <0>        -0.1172
     15 C12         7.5900   -7.1805   -0.8151 C.ar      1 <0>        -0.1173
     16 C13         8.1484   -8.1837   -0.0433 C.ar      1 <0>        -0.1312
     17 C14         7.3647   -8.8991    0.8444 C.ar      1 <0>        -0.1212
     18 C15         6.0212   -8.6112    0.9701 C.ar      1 <0>        -0.1147
     19 C16         1.3555   -1.8768    0.0006 C.2       1 <0>         0.2690
     20 N1          1.1333   -0.5825    0.0537 N.2       1 <0>        -0.6320
     21 C17         2.7773   -2.3763    0.0084 C.3       1 <0>        -0.0902
     22 C18        -1.7802   -2.7213   -1.3345 C.ar      1 <0>         0.0099
     23 C19        -1.3342   -2.2774   -2.5656 C.ar      1 <0>        -0.0631
     24 C20        -1.9562   -2.7080   -3.7223 C.ar      1 <0>        -0.1339
     25 C21        -3.0241   -3.5829   -3.6484 C.ar      1 <0>        -0.0929
     26 C22        -3.4694   -4.0274   -2.4177 C.ar      1 <0>        -0.0600
     27 C23        -2.8445   -3.6000   -1.2609 C.ar      1 <0>         0.0079
     28 N2         -4.6131   -4.9637   -2.3385 N.pl3     1 <0>         0.0518
     29 O3         -5.1577   -5.3396   -3.3503 O.2       1 <0>        -0.2006
     30 O4         -5.0026   -5.3524   -1.2621 O.3       1 <0>        -0.1737
     31 C24        -2.4781   -0.1130    0.0003 C.2       1 <0>         0.4780
     32 O5         -2.5574    1.2175    0.0638 O.co2     1 <0>        -0.7322
     33 O6         -3.5918   -0.8457   -0.0606 O.co2     1 <0>        -0.7322
     34 H2          0.8612    1.9128    0.1689 H         1 <0>         0.0250
     35 H3         -0.6614    1.8699   -0.7519 H         1 <0>         0.0683
     36 H4         -0.6937    1.7843    1.0257 H         1 <0>         0.0682
     37 H5          1.6113   -6.4778    0.6092 H         1 <0>         0.0638
     38 H6          1.4699   -6.4235   -1.1643 H         1 <0>         0.0693
     39 H7          4.0841   -5.7854   -1.1239 H         1 <0>         0.1203
     40 H8          3.3975   -7.8497    1.0101 H         1 <0>         0.1209
     41 H9          5.8115   -6.1044   -1.3074 H         1 <0>         0.1278
     42 H10         8.2070   -6.6260   -1.5066 H         1 <0>         0.1209
     43 H11         9.2005   -8.4097   -0.1344 H         1 <0>         0.1172
     44 H12         7.8065   -9.6815    1.4436 H         1 <0>         0.1190
     45 H13         5.4115   -9.1669    1.6672 H         1 <0>         0.1228
     46 H14         2.9858   -2.8938   -0.9280 H         1 <0>         0.0678
     47 H15         3.4584   -1.5322    0.1165 H         1 <0>         0.0528
     48 H16         2.9162   -3.0643    0.8424 H         1 <0>         0.0669
     49 H17        -0.4999   -1.5939   -2.6233 H         1 <0>         0.1248
     50 H18        -1.6082   -2.3606   -4.6839 H         1 <0>         0.1283
     51 H19        -3.5106   -3.9188   -4.5522 H         1 <0>         0.1330
     52 H20        -3.1901   -3.9502   -0.2995 H         1 <0>         0.1386
@<TRIPOS>BOND
     1    1    2 1
     2    1   34 1
     3    1   35 1
     4    1   36 1
     5    2   20 1
     6    2    3 2
     7    3    4 1
     8    3   31 1
     9    4    5 1
    10    4    6 1
    11    4   22 1
    12    6    7 2
    13    6   19 1
    14    7    8 1
    15    7    9 1
    16    9   10 1
    17   10   11 1
    18   10   37 1
    19   10   38 1
    20   11   12 2
    21   11   39 1
    22   12   13 1
    23   12   40 1
    24   13   18 ar
    25   13   14 ar
    26   14   15 ar
    27   14   41 1
    28   15   16 ar
    29   15   42 1
    30   16   17 ar
    31   16   43 1
    32   17   18 ar
    33   17   44 1
    34   18   45 1
    35   19   20 2
    36   19   21 1
    37   21   46 1
    38   21   47 1
    39   21   48 1
    40   22   27 ar
    41   22   23 ar
    42   23   24 ar
    43   23   49 1
    44   24   25 ar
    45   24   50 1
    46   25   26 ar
    47   25   51 1
    48   26   27 ar
    49   26   28 1
    50   27   52 1
    51   28   29 2
    52   28   30 1
    53   31   32 2
    54   31   33 1
@<TRIPOS>MOLECULE
ZINC16928779
   47    49     0     0     0
SMALL
USER_CHARGES
2-[[(5Z)-3-allyl-5-[[2-(carboxymethyloxy)phenyl]methylene]-4-oxo-thiazolidin-2-ylidene]amino]benzoic acid
@<TRIPOS>ATOM
      1 C1         -1.9844   -4.5283    1.6745 C.2       1 <0>        -0.1729
      2 C2         -2.1252   -3.3290    1.1667 C.2       1 <0>        -0.1624
      3 C3         -2.7254   -3.1573   -0.2050 C.3       1 <0>         0.1294
      4 N1         -3.8670   -2.2424   -0.1275 N.am      1 <0>        -0.5339
      5 C4         -5.0762   -2.7235    0.1066 C.2       1 <0>         0.5602
      6 O1         -5.2678   -3.9154    0.2620 O.2       1 <0>        -0.4931
      7 C5         -6.1833   -1.7504    0.1646 C.2       1 <0>        -0.2237
      8 C6         -7.5070   -1.9629    0.3802 C.2       1 <0>         0.0814
      9 C7         -8.4608   -0.8566    0.2362 C.ar      1 <0>        -0.1289
     10 C8         -8.1023    0.2949   -0.4746 C.ar      1 <0>        -0.0537
     11 C9         -9.0047    1.3271   -0.6090 C.ar      1 <0>        -0.1691
     12 C10       -10.2628    1.2354   -0.0356 C.ar      1 <0>        -0.0570
     13 C11       -10.6287    0.1071    0.6733 C.ar      1 <0>        -0.2237
     14 C12        -9.7373   -0.9439    0.8157 C.ar      1 <0>         0.1754
     15 O2        -10.0957   -2.0523    1.5122 O.3       1 <0>        -0.2794
     16 C13       -11.4100   -2.0694    2.0730 C.3       1 <0>         0.0164
     17 C14       -11.6272   -3.3690    2.8043 C.2       1 <0>         0.4691
     18 O3        -10.7469   -4.1958    2.8415 O.co2     1 <0>        -0.6086
     19 S1         -5.3134   -0.2167   -0.1260 S.3       1 <0>        -0.0514
     20 C15        -3.6688   -0.8910   -0.2943 C.2       1 <0>         0.3723
     21 N2         -2.5410   -0.2512   -0.5272 N.2       1 <0>        -0.3969
     22 C16        -2.5249    1.1089   -0.5607 C.ar      1 <0>         0.1214
     23 C17        -3.1144    1.8464    0.4708 C.ar      1 <0>        -0.1581
     24 C18        -3.0944    3.2224    0.4313 C.ar      1 <0>        -0.1053
     25 C19        -2.4923    3.8889   -0.6269 C.ar      1 <0>        -0.1451
     26 C20        -1.9006    3.1848   -1.6516 C.ar      1 <0>        -0.0682
     27 C21        -1.9125    1.7871   -1.6371 C.ar      1 <0>        -0.0988
     28 C22        -1.2869    1.0292   -2.7309 C.2       1 <0>         0.4874
     29 O4         -1.2956   -0.1862   -2.7108 O.co2     1 <0>        -0.6043
     30 H1         -2.2984   -5.3940    1.1103 H         1 <0>         0.0994
     31 H2         -1.5543   -4.6513    2.6575 H         1 <0>         0.0982
     32 H3         -1.8112   -2.4633    1.7309 H         1 <0>         0.1111
     33 H4         -3.0600   -4.1249   -0.5789 H         1 <0>         0.0948
     34 H5         -1.9755   -2.7462   -0.8808 H         1 <0>         0.1162
     35 H6         -7.8579   -2.9458    0.6576 H         1 <0>         0.1640
     36 H7         -7.1213    0.3725   -0.9196 H         1 <0>         0.1432
     37 H8         -8.7290    2.2135   -1.1609 H         1 <0>         0.1266
     38 H9        -10.9620    2.0515   -0.1432 H         1 <0>         0.1245
     39 H10       -11.6114    0.0443    1.1168 H         1 <0>         0.1339
     40 H11       -11.5187   -1.2380    2.7694 H         1 <0>         0.0691
     41 H12       -12.1466   -1.9739    1.2753 H         1 <0>         0.0692
     42 H13        -3.5850    1.3367    1.2986 H         1 <0>         0.1231
     43 H14        -3.5506    3.7879    1.2303 H         1 <0>         0.1187
     44 H15        -2.4842    4.9687   -0.6446 H         1 <0>         0.1174
     45 H16        -1.4309    3.7124   -2.4686 H         1 <0>         0.1343
     46 O5        -12.7987   -3.6082    3.4144 O.co2     1 <0>        -0.7578
     47 O6         -0.7085    1.6822   -3.7587 O.co2     1 <0>        -0.7641
@<TRIPOS>BOND
     1    1    2 2
     2    1   30 1
     3    1   31 1
     4    2    3 1
     5    2   32 1
     6    3    4 1
     7    3   33 1
     8    3   34 1
     9    4   20 1
    10    4    5 am
    11    5    6 2
    12    5    7 1
    13    7    8 2
    14    7   19 1
    15    8    9 1
    16    8   35 1
    17    9   14 ar
    18    9   10 ar
    19   10   11 ar
    20   10   36 1
    21   11   12 ar
    22   11   37 1
    23   12   13 ar
    24   12   38 1
    25   13   14 ar
    26   13   39 1
    27   14   15 1
    28   15   16 1
    29   16   17 1
    30   16   40 1
    31   16   41 1
    32   17   18 2
    33   17   46 1
    34   19   20 1
    35   20   21 2
    36   21   22 1
    37   22   27 ar
    38   22   23 ar
    39   23   24 ar
    40   23   42 1
    41   24   25 ar
    42   24   43 1
    43   25   26 ar
    44   25   44 1
    45   26   27 ar
    46   26   45 1
    47   27   28 1
    48   28   29 2
    49   28   47 1
@<TRIPOS>MOLECULE
ZINC16935664
   50    51     0     0     0
SMALL
USER_CHARGES
(2R,3S)-2-[(5Z)-5-[[2-[(1S)-1-carboxypropoxy]phenyl]methylene]-4-oxo-2-thioxo-thiazolidin-3-yl]-3-methyl-pentanoic acid
@<TRIPOS>ATOM
      1 C1          5.5033    2.1830   10.6214 C.3       1 <0>        -0.1451
      2 C2          4.7501    0.9455   10.1295 C.3       1 <0>        -0.1152
      3 C3          4.7040    0.9510    8.6002 C.3       1 <0>        -0.1015
      4 H1          5.7198    0.9814    8.2062 H         1 <0>         0.1060
      5 C4          3.9327    2.1811    8.1176 C.3       1 <0>        -0.1452
      6 C5          4.0033   -0.3164    8.1065 C.3       1 <0>         0.0746
      7 H2          3.0161   -0.3872    8.5633 H         1 <0>         0.1087
      8 C6          4.8209   -1.5235    8.4879 C.2       1 <0>         0.4691
      9 O1          5.5223   -2.0626    7.6650 O.co2     1 <0>        -0.5993
     10 N1          3.8642   -0.2614    6.6492 N.am      1 <0>        -0.4958
     11 C7          2.6556   -0.2952    6.1136 C.2       1 <0>         0.5446
     12 O2          1.6537   -0.3700    6.8007 O.2       1 <0>        -0.4798
     13 C8          2.5831   -0.2426    4.6399 C.2       1 <0>        -0.2460
     14 C9          1.4971   -0.2639    3.8255 C.2       1 <0>         0.1039
     15 C10         1.6706   -0.3998    2.3743 C.ar      1 <0>        -0.1411
     16 C11         2.8609   -0.9202    1.8526 C.ar      1 <0>        -0.0555
     17 C12         3.0181   -1.0398    0.4893 C.ar      1 <0>        -0.1712
     18 C13         2.0015   -0.6522   -0.3688 C.ar      1 <0>        -0.0535
     19 C14         0.8193   -0.1413    0.1320 C.ar      1 <0>        -0.2087
     20 C15         0.6416   -0.0130    1.5000 C.ar      1 <0>         0.2032
     21 O3         -0.5191    0.4891    1.9928 O.3       1 <0>        -0.2873
     22 C16        -1.5592    0.7620    1.0516 C.3       1 <0>         0.0390
     23 H3         -1.5609   -0.0068    0.2789 H         1 <0>         0.0744
     24 C17        -2.9097    0.7652    1.7708 C.3       1 <0>        -0.1023
     25 C18        -3.2058   -0.6371    2.3061 C.3       1 <0>        -0.1498
     26 C19        -1.3236    2.1094    0.4191 C.2       1 <0>         0.4468
     27 O4         -0.4160    2.8075    0.8049 O.co2     1 <0>        -0.6120
     28 S1          4.3182   -0.1352    4.2231 S.3       1 <0>         0.0183
     29 C20         4.9714   -0.1718    5.8845 C.2       1 <0>         0.2792
     30 S2          6.6072   -0.1075    6.3854 S.2       1 <0>        -0.2910
     31 H4          4.9909    3.0812   10.2766 H         1 <0>         0.0473
     32 H5          5.5361    2.1791   11.7109 H         1 <0>         0.0470
     33 H6          6.5194    2.1704   10.2273 H         1 <0>         0.0514
     34 H7          3.7339    0.9581   10.5237 H         1 <0>         0.0526
     35 H8          5.2625    0.0473   10.4743 H         1 <0>         0.0945
     36 H9          2.9168    2.1506    8.5116 H         1 <0>         0.0514
     37 H10         4.4318    3.0839    8.4693 H         1 <0>         0.0596
     38 H11         3.8998    2.1850    7.0281 H         1 <0>         0.0397
     39 H12         0.5056   -0.1808    4.2454 H         1 <0>         0.1582
     40 H13         3.6559   -1.2239    2.5176 H         1 <0>         0.1401
     41 H14         3.9381   -1.4378    0.0873 H         1 <0>         0.1264
     42 H15         2.1341   -0.7497   -1.4361 H         1 <0>         0.1246
     43 H16         0.0323    0.1583   -0.5443 H         1 <0>         0.1345
     44 H17        -3.6926    1.0603    1.0721 H         1 <0>         0.0883
     45 H18        -2.8779    1.4716    2.6003 H         1 <0>         0.0689
     46 H19        -3.2376   -1.3435    1.4765 H         1 <0>         0.0496
     47 H20        -2.4229   -0.9322    3.0047 H         1 <0>         0.0584
     48 H21        -4.1679   -0.6348    2.8184 H         1 <0>         0.0523
     49 O5          4.7701   -1.9996    9.7419 O.co2     1 <0>        -0.7505
     50 O6         -2.1221    2.5340   -0.5728 O.co2     1 <0>        -0.7617
@<TRIPOS>BOND
     1    1    2 1
     2    1   31 1
     3    1   32 1
     4    1   33 1
     5    2    3 1
     6    2   34 1
     7    2   35 1
     8    3    4 1
     9    3    5 1
    10    3    6 1
    11    5   36 1
    12    5   37 1
    13    5   38 1
    14    6    7 1
    15    6    8 1
    16    6   10 1
    17    8    9 2
    18    8   49 1
    19   10   29 1
    20   10   11 am
    21   11   12 2
    22   11   13 1
    23   13   14 2
    24   13   28 1
    25   14   15 1
    26   14   39 1
    27   15   20 ar
    28   15   16 ar
    29   16   17 ar
    30   16   40 1
    31   17   18 ar
    32   17   41 1
    33   18   19 ar
    34   18   42 1
    35   19   20 ar
    36   19   43 1
    37   20   21 1
    38   21   22 1
    39   22   23 1
    40   22   24 1
    41   22   26 1
    42   24   25 1
    43   24   44 1
    44   24   45 1
    45   25   46 1
    46   25   47 1
    47   25   48 1
    48   26   27 2
    49   26   50 1
    50   28   29 1
    51   29   30 2
@<TRIPOS>MOLECULE
ZINC17422900
   44    45     0     0     0
SMALL
USER_CHARGES
(E)-2-[(Z)-1-carboxy-2-(4-methoxyphenyl)vinyl]disulfanyl-3-(4-methoxyphenyl)prop-2-enoic acid
@<TRIPOS>ATOM
      1 C1          1.2174   -0.0376   10.0358 C.3       1 <0>         0.0291
      2 O1          1.9103   -0.7928    9.0400 O.3       1 <0>        -0.3236
      3 C2          1.6314   -0.5044    7.7423 C.ar      1 <0>         0.0976
      4 C3          2.2710   -1.2025    6.7252 C.ar      1 <0>        -0.1443
      5 C4          1.9926   -0.9140    5.4077 C.ar      1 <0>        -0.0691
      6 C5          1.0627    0.0846    5.0940 C.ar      1 <0>        -0.0400
      7 C6          0.4249    0.7881    6.1229 C.ar      1 <0>        -0.0846
      8 C7          0.7079    0.4881    7.4368 C.ar      1 <0>        -0.2147
      9 C8          0.7619    0.3972    3.6907 C.2       1 <0>        -0.1648
     10 C9          0.6419   -0.6051    2.7826 C.2       1 <0>        -0.0983
     11 C10         0.8555   -1.9985    3.1943 C.2       1 <0>         0.5234
     12 O2         -0.0502   -2.6263    3.7079 O.co2     1 <0>        -0.6273
     13 O3          2.0563   -2.5817    3.0026 O.co2     1 <0>        -0.7262
     14 S1          0.2298   -0.2339    1.1101 S.3       1 <0>         0.0460
     15 S2          0.2264    1.8150    1.0432 S.3       1 <0>        -0.1060
     16 C11         1.9144    2.2351    0.7622 C.2       1 <0>        -0.1461
     17 C12         2.3016    3.5365    0.7769 C.2       1 <0>        -0.0862
     18 C13         1.2936    4.6018    0.8564 C.ar      1 <0>        -0.0624
     19 C14         0.0699    4.4625    0.1903 C.ar      1 <0>        -0.0651
     20 C15        -0.8730    5.4628    0.2716 C.ar      1 <0>        -0.1982
     21 C16        -0.6082    6.6130    1.0052 C.ar      1 <0>         0.1071
     22 C17         0.6065    6.7588    1.6643 C.ar      1 <0>        -0.1502
     23 C18         1.5551    5.7630    1.5937 C.ar      1 <0>        -0.0735
     24 O4         -1.5400    7.5986    1.0780 O.3       1 <0>        -0.3232
     25 C19        -2.8072    7.3395    0.4703 C.3       1 <0>         0.0256
     26 C20         2.9024    1.1778    0.5121 C.2       1 <0>         0.4731
     27 O5          2.5557    0.0126    0.4989 O.co2     1 <0>        -0.5609
     28 O6          4.1944    1.4993    0.2970 O.co2     1 <0>        -0.7518
     29 H1          1.5348   -0.3702   11.0351 H         1 <0>         0.0898
     30 H2          0.1339   -0.1918    9.9250 H         1 <0>         0.0501
     31 H3          1.4501    1.0306    9.9138 H         1 <0>         0.0495
     32 H4          2.9882   -1.9726    6.9684 H         1 <0>         0.1230
     33 H5          2.4908   -1.4568    4.6180 H         1 <0>         0.1686
     34 H6         -0.2900    1.5624    5.8866 H         1 <0>         0.1185
     35 H7          0.2141    1.0278    8.2314 H         1 <0>         0.1169
     36 H8          0.6338    1.4432    3.3754 H         1 <0>         0.1292
     37 H9          3.3702    3.7930    0.7293 H         1 <0>         0.1449
     38 H10        -0.1353    3.5708   -0.3835 H         1 <0>         0.1403
     39 H11        -1.8186    5.3550   -0.2390 H         1 <0>         0.1246
     40 H12         0.8070    7.6550    2.2327 H         1 <0>         0.1251
     41 H13         2.4990    5.8777    2.1057 H         1 <0>         0.1309
     42 H14        -3.4623    8.2134    0.6015 H         1 <0>         0.0939
     43 H15        -3.2686    6.4609    0.9448 H         1 <0>         0.0558
     44 H16        -2.6661    7.1448   -0.6031 H         1 <0>         0.0534
@<TRIPOS>BOND
     1    1    2 1
     2    1   29 1
     3    1   30 1
     4    1   31 1
     5    2    3 1
     6    3    8 ar
     7    3    4 ar
     8    4    5 ar
     9    4   32 1
    10    5    6 ar
    11    5   33 1
    12    6    7 ar
    13    6    9 1
    14    7    8 ar
    15    7   34 1
    16    8   35 1
    17    9   10 2
    18    9   36 1
    19   10   11 1
    20   10   14 1
    21   11   12 2
    22   11   13 1
    23   14   15 1
    24   15   16 1
    25   16   17 2
    26   16   26 1
    27   17   18 1
    28   17   37 1
    29   18   23 ar
    30   18   19 ar
    31   19   20 ar
    32   19   38 1
    33   20   21 ar
    34   20   39 1
    35   21   22 ar
    36   21   24 1
    37   22   23 ar
    38   22   40 1
    39   23   41 1
    40   24   25 1
    41   25   42 1
    42   25   43 1
    43   25   44 1
    44   26   27 2
    45   26   28 1
@<TRIPOS>MOLECULE
ZINC13183676
   46    47     0     0     0
SMALL
USER_CHARGES

@<TRIPOS>ATOM
      1 C1         -0.0517    1.4955    0.1030 C.3       1 <0>        -0.1485
      2 C2         -0.0110   -0.0337    0.0758 C.3       1 <0>         0.0497
      3 O1          0.6305   -0.4718   -1.1236 O.3       1 <0>        -0.3055
      4 C3          0.7495   -1.8143   -1.3051 C.ar      1 <0>         0.1316
      5 C4          0.2545   -2.6904   -0.3525 C.ar      1 <0>        -0.1984
      6 C5          0.3759   -4.0548   -0.5388 C.ar      1 <0>        -0.0181
      7 C6          0.9910   -4.5485   -1.6742 C.ar      1 <0>        -0.6036
      8 C7          1.4874   -3.6800   -2.6283 C.ar      1 <0>        -0.0739
      9 C8          1.3635   -2.3114   -2.4507 C.ar      1 <0>         0.0754
     10 O2          1.8459   -1.4557   -3.3912 O.3       1 <0>        -0.3090
     11 C9          2.4637   -2.0369   -4.5412 C.3       1 <0>         0.0445
     12 C10         2.9407   -0.9267   -5.4798 C.3       1 <0>        -0.1453
     13 S1          1.1431   -6.2887   -1.9055 S.o2      1 <0>         2.5941
     14 O3          2.2413   -6.4870   -2.7852 O.2       1 <0>        -1.0318
     15 O4          1.0864   -6.8766   -0.6131 O.2       1 <0>        -1.0300
     16 N1         -0.2096   -6.7950   -2.7155 N.2       1 <0>        -1.0680
     17 C11        -0.3233   -8.1206   -3.1177 C.ar      1 <0>         0.3181
     18 C12         0.6304   -9.0491   -2.7186 C.ar      1 <0>        -0.3629
     19 C13         0.5179  -10.3687   -3.1180 C.ar      1 <0>         0.2088
     20 C14        -0.5632  -10.7610   -3.9265 C.ar      1 <0>        -0.2559
     21 C15        -1.5164   -9.8128   -4.3203 C.ar      1 <0>        -0.0003
     22 C16        -1.3978   -8.5149   -3.9157 C.ar      1 <0>        -0.1325
     23 Cl1        -2.5866   -7.3469   -4.4017 Cl        1 <0>        -0.1119
     24 C17        -0.6925  -12.1583   -4.3567 C.2       1 <0>         0.5373
     25 O5         -1.6347  -12.4973   -5.0606 O.co2     1 <0>        -0.7170
     26 O6          0.1419  -12.9847   -4.0115 O.co2     1 <0>        -0.6903
     27 O7          1.4461  -11.2793   -2.7319 O.3       1 <0>        -0.2727
     28 C18         2.5163  -10.8068   -1.9113 C.3       1 <0>         0.0210
     29 H1          0.9652    1.8867    0.0711 H         1 <0>         0.0640
     30 H2         -0.6083    1.8596   -0.7605 H         1 <0>         0.0652
     31 H3         -0.5409    1.8298    1.0179 H         1 <0>         0.0750
     32 H4          0.5457   -0.3978    0.9393 H         1 <0>         0.0608
     33 H5         -1.0279   -0.4248    0.1077 H         1 <0>         0.0626
     34 H6         -0.2258   -2.3072    0.5357 H         1 <0>         0.1364
     35 H7         -0.0103   -4.7365    0.2045 H         1 <0>         0.1421
     36 H8          1.9678   -4.0683   -3.5142 H         1 <0>         0.1481
     37 H9          3.3161   -2.6405   -4.2297 H         1 <0>         0.0638
     38 H10         1.7426   -2.6675   -5.0613 H         1 <0>         0.0671
     39 H11         2.0882   -0.3231   -5.7913 H         1 <0>         0.0637
     40 H12         3.6618   -0.2961   -4.9597 H         1 <0>         0.0619
     41 H13         3.4119   -1.3701   -6.3570 H         1 <0>         0.0769
     42 H14         1.4586   -8.7408   -2.0978 H         1 <0>         0.1068
     43 H15        -2.3484  -10.1102   -4.9414 H         1 <0>         0.1264
     44 H16         3.1855  -11.6341   -1.6751 H         1 <0>         0.0848
     45 H17         3.0690  -10.0334   -2.4448 H         1 <0>         0.0446
     46 H18         2.1108  -10.3924   -0.9883 H         1 <0>         0.0451
@<TRIPOS>BOND
     1    1    2 1
     2    1   29 1
     3    1   30 1
     4    1   31 1
     5    2    3 1
     6    2   32 1
     7    2   33 1
     8    3    4 1
     9    4    9 ar
    10    4    5 ar
    11    5    6 ar
    12    5   34 1
    13    6    7 ar
    14    6   35 1
    15    7    8 ar
    16    7   13 1
    17    8    9 ar
    18    8   36 1
    19    9   10 1
    20   10   11 1
    21   11   12 1
    22   11   37 1
    23   11   38 1
    24   12   39 1
    25   12   40 1
    26   12   41 1
    27   13   14 2
    28   13   15 2
    29   13   16 1
    30   16   17 1
    31   17   22 ar
    32   17   18 ar
    33   18   19 ar
    34   18   42 1
    35   19   20 ar
    36   19   27 1
    37   20   21 ar
    38   20   24 1
    39   21   22 ar
    40   21   43 1
    41   22   23 1
    42   24   25 2
    43   24   26 1
    44   27   28 1
    45   28   44 1
    46   28   45 1
    47   28   46 1
@<TRIPOS>MOLECULE
ZINC66349130
   64    64     0     0     0
SMALL
USER_CHARGES

@<TRIPOS>ATOM
      1 C1         -1.4604    1.4356    0.9894 C.3       1 <0>        -0.1349
      2 C2         -1.3964    0.1381    0.1811 C.3       1 <0>        -0.0656
      3 C3         -0.3064    0.2553   -0.8862 C.3       1 <0>        -0.1521
      4 C4         -1.0719   -1.0293    1.1154 C.3       1 <0>        -0.1154
      5 C5         -1.1604   -2.3246    0.3503 C.2       1 <0>         0.2703
      6 C6         -2.4555   -3.0084    0.2088 C.2       1 <0>        -0.4941
      7 C7         -3.6162   -2.3753    0.6521 C.2       1 <0>         0.3878
      8 O1         -3.5453   -1.2638    1.1526 O.3       1 <0>        -0.5755
      9 C8         -4.9567   -3.0494    0.5189 C.3       1 <0>        -0.1421
     10 C9         -4.7698   -4.5676    0.5857 C.3       1 <0>        -0.0495
     11 C10        -3.8115   -5.0020   -0.5266 C.3       1 <0>        -0.1478
     12 C11        -2.5010   -4.2756   -0.3714 C.2       1 <0>         0.3879
     13 O2         -1.4682   -4.8033   -0.7533 O.2       1 <0>        -0.5245
     14 C12        -6.1215   -5.2586    0.3957 C.3       1 <0>        -0.1367
     15 C13        -4.1832   -4.9517    1.9456 C.3       1 <0>        -0.1418
     16 N1         -0.0961   -2.8361   -0.1830 N.2       1 <0>        -0.5487
     17 C14         1.1886   -2.1418   -0.0647 C.3       1 <0>         0.0350
     18 C15         2.1431   -2.9776    0.7904 C.3       1 <0>        -0.0966
     19 C16         3.4424   -2.2006    1.0119 C.3       1 <0>         0.0952
     20 H1          3.8939   -1.9653    0.0481 H         1 <0>         0.0828
     21 C17         4.3970   -3.0389    1.8225 C.2       1 <0>         0.4942
     22 O3          4.9110   -4.0277    1.3280 O.co2     1 <0>        -0.6982
     23 O4          4.6554   -2.7282    2.9728 O.co2     1 <0>        -0.6933
     24 N2          3.1517   -0.9580    1.7313 N.am      1 <0>        -0.6653
     25 C18         3.9468    0.1178    1.5668 C.2       1 <0>         0.6519
     26 O5          4.9048    0.0570    0.8217 O.2       1 <0>        -0.5814
     27 O6          3.6797    1.2597    2.2280 O.3       1 <0>        -0.3658
     28 C19         4.5642    2.3600    2.0061 C.3       1 <0>         0.1350
     29 C20         4.5531    2.7320    0.5220 C.3       1 <0>        -0.1832
     30 C21         4.1037    3.5600    2.8361 C.3       1 <0>        -0.1361
     31 C22         5.9827    1.9660    2.4225 C.3       1 <0>        -0.1835
     32 H2         -1.6915    2.2673    0.3238 H         1 <0>         0.0370
     33 H3         -2.2369    1.3521    1.7497 H         1 <0>         0.0535
     34 H4         -0.4983    1.6118    1.4705 H         1 <0>         0.0429
     35 H5         -2.3585   -0.0381   -0.2999 H         1 <0>         0.0758
     36 H6         -0.5726    1.0416   -1.5925 H         1 <0>         0.0354
     37 H7          0.6431    0.5006   -0.4104 H         1 <0>         0.0464
     38 H8         -0.2131   -0.6927   -1.4159 H         1 <0>         0.0612
     39 H9         -0.0632   -0.9089    1.5105 H         1 <0>         0.0435
     40 H10        -5.6082   -2.7270    1.3311 H         1 <0>         0.0639
     41 H11        -5.4060   -2.7799   -0.4370 H         1 <0>         0.0682
     42 H12        -3.6434   -6.0771   -0.4626 H         1 <0>         0.0637
     43 H13        -4.2456   -4.7585   -1.4963 H         1 <0>         0.0667
     44 H14        -6.5353   -4.9865   -0.5753 H         1 <0>         0.0486
     45 H15        -5.9870   -6.3392    0.4435 H         1 <0>         0.0490
     46 H16        -6.8052   -4.9424    1.1835 H         1 <0>         0.0481
     47 H17        -4.8625   -4.6347    2.7369 H         1 <0>         0.0434
     48 H18        -4.0506   -6.0326    1.9919 H         1 <0>         0.0448
     49 H19        -3.2186   -4.4613    2.0768 H         1 <0>         0.0741
     50 H20        -1.7854   -1.0445    1.9392 H         1 <0>         0.0899
     51 H21         1.6181   -2.0009   -1.0566 H         1 <0>         0.0521
     52 H22         1.0348   -1.1708    0.4059 H         1 <0>         0.0421
     53 H23         1.6778   -3.1893    1.7531 H         1 <0>         0.0531
     54 H24         2.3629   -3.9148    0.2791 H         1 <0>         0.0824
     55 H25         2.3870   -0.9094    2.3261 H         1 <0>         0.3962
     56 H26         3.5425    3.0126    0.2254 H         1 <0>         0.0555
     57 H27         5.2277    3.5712    0.3528 H         1 <0>         0.0593
     58 H28         4.8811    1.8771   -0.0693 H         1 <0>         0.0906
     59 H29         4.1116    3.2949    3.8934 H         1 <0>         0.0633
     60 H30         4.7783    4.3992    2.6668 H         1 <0>         0.0711
     61 H31         3.0931    3.8406    2.5394 H         1 <0>         0.0631
     62 H32         6.3108    1.1111    1.8312 H         1 <0>         0.0921
     63 H33         6.6574    2.8052    2.2533 H         1 <0>         0.0581
     64 H34         5.9906    1.7010    3.4798 H         1 <0>         0.0569
@<TRIPOS>BOND
     1    1    2 1
     2    1   32 1
     3    1   33 1
     4    1   34 1
     5    2    3 1
     6    2   35 1
     7    2    4 1
     8    3   36 1
     9    3   37 1
    10    3   38 1
    11    4    5 1
    12    4   39 1
    13    4   50 1
    14    5    6 1
    15    5   16 2
    16    6   12 1
    17    6    7 2
    18    7    8 1
    19    7    9 1
    20    9   10 1
    21    9   40 1
    22    9   41 1
    23   10   11 1
    24   10   14 1
    25   10   15 1
    26   11   12 1
    27   11   42 1
    28   11   43 1
    29   12   13 2
    30   14   44 1
    31   14   45 1
    32   14   46 1
    33   15   47 1
    34   15   48 1
    35   15   49 1
    36   16   17 1
    37   17   18 1
    38   17   51 1
    39   17   52 1
    40   18   19 1
    41   18   53 1
    42   18   54 1
    43   19   20 1
    44   19   21 1
    45   19   24 1
    46   21   22 2
    47   21   23 1
    48   24   25 am
    49   24   55 1
    50   25   26 2
    51   25   27 1
    52   27   28 1
    53   28   29 1
    54   28   30 1
    55   28   31 1
    56   29   56 1
    57   29   57 1
    58   29   58 1
    59   30   59 1
    60   30   60 1
    61   30   61 1
    62   31   62 1
    63   31   63 1
    64   31   64 1
@<TRIPOS>MOLECULE
ZINC07498557
   45    45     0     0     0
SMALL
USER_CHARGES
methyl 4-[3-(2-methoxyethoxycarbonyl)propanoylthiocarbamoylamino]benzoate
@<TRIPOS>ATOM
      1 C1         11.6974    4.5816   -1.5594 C.3       1 <0>         0.0303
      2 O1         10.6992    3.6368   -1.1684 O.3       1 <0>        -0.3867
      3 C2         10.5961    2.5070   -2.0373 C.3       1 <0>         0.0598
      4 C3          9.5026    1.5675   -1.5248 C.3       1 <0>         0.0689
      5 O2          8.2149    2.2336   -1.6063 O.3       1 <0>        -0.3454
      6 C4          7.1429    1.5403   -1.1919 C.2       1 <0>         0.4668
      7 O3          7.2760    0.4141   -0.7748 O.2       1 <0>        -0.5130
      8 C5          5.7732    2.1664   -1.2468 C.3       1 <0>        -0.1020
      9 C6          4.7363    1.1719   -0.7208 C.3       1 <0>        -0.1253
     10 C7          3.3667    1.7981   -0.7757 C.2       1 <0>         0.4889
     11 O4          3.2331    2.9282   -1.1943 O.2       1 <0>        -0.4015
     12 N1          2.2903    1.1020   -0.3596 N.am      1 <0>        -0.6408
     13 C8          1.0653    1.6620   -0.4088 C.2       1 <0>         0.5068
     14 S1          0.8767    3.2576   -0.9998 S.2       1 <0>        -0.4748
     15 N2         -0.0111    0.9658    0.0074 N.pl3     1 <0>        -0.6235
     16 C9         -1.2652    1.5721    0.0338 C.ar      1 <0>         0.1516
     17 C10        -2.0886    1.4157    1.1449 C.ar      1 <0>        -0.1316
     18 C11        -3.3261    2.0172    1.1764 C.ar      1 <0>        -0.0566
     19 C12        -3.7600    2.7774    0.0861 C.ar      1 <0>        -0.1187
     20 C13        -2.9323    2.9281   -1.0307 C.ar      1 <0>        -0.0461
     21 C14        -1.6939    2.3281   -1.0532 C.ar      1 <0>        -0.0814
     22 C15        -5.0872    3.4190    0.1141 C.2       1 <0>         0.5075
     23 O5         -5.4627    4.0797   -0.8340 O.2       1 <0>        -0.5008
     24 O6         -5.8837    3.2728    1.1912 O.3       1 <0>        -0.3558
     25 C16        -7.1765    3.9324    1.1494 C.3       1 <0>         0.0362
     26 H1         12.6728    4.0953   -1.5718 H         1 <0>         0.0426
     27 H2         11.4680    4.9614   -2.5550 H         1 <0>         0.0443
     28 H3         11.7127    5.4086   -0.8496 H         1 <0>         0.0891
     29 H4         11.5487    1.9777   -2.0596 H         1 <0>         0.0753
     30 H5         10.3439    2.8437   -3.0428 H         1 <0>         0.0639
     31 H6          9.7089    1.3012   -0.4881 H         1 <0>         0.0814
     32 H7          9.4839    0.6646   -2.1351 H         1 <0>         0.0886
     33 H8          5.5348    2.4288   -2.2776 H         1 <0>         0.1194
     34 H9          5.7598    3.0654   -0.6306 H         1 <0>         0.1203
     35 H10         4.9748    0.9095    0.3099 H         1 <0>         0.1111
     36 H11         4.7498    0.2729   -1.3370 H         1 <0>         0.1107
     37 H12         2.3971    0.1979   -0.0248 H         1 <0>         0.4138
     38 H13         0.0867    0.0415    0.2846 H         1 <0>         0.4110
     39 H14        -1.7545    0.8249    1.9850 H         1 <0>         0.1355
     40 H15        -3.9629    1.8987    2.0406 H         1 <0>         0.1451
     41 H16        -3.2642    3.5149   -1.8744 H         1 <0>         0.1453
     42 H17        -1.0538    2.4444   -1.9154 H         1 <0>         0.1555
     43 H18        -7.0327    5.0069    1.0352 H         1 <0>         0.0652
     44 H19        -7.7519    3.5512    0.3058 H         1 <0>         0.0649
     45 H20        -7.7155    3.7345    2.0759 H         1 <0>         0.1041
@<TRIPOS>BOND
     1    1    2 1
     2    1   26 1
     3    1   27 1
     4    1   28 1
     5    2    3 1
     6    3    4 1
     7    3   29 1
     8    3   30 1
     9    4    5 1
    10    4   31 1
    11    4   32 1
    12    5    6 1
    13    6    7 2
    14    6    8 1
    15    8    9 1
    16    8   33 1
    17    8   34 1
    18    9   10 1
    19    9   35 1
    20    9   36 1
    21   10   11 2
    22   10   12 am
    23   12   13 1
    24   12   37 1
    25   13   14 2
    26   13   15 1
    27   15   16 1
    28   15   38 1
    29   16   21 ar
    30   16   17 ar
    31   17   18 ar
    32   17   39 1
    33   18   19 ar
    34   18   40 1
    35   19   20 ar
    36   19   22 1
    37   20   21 ar
    38   20   41 1
    39   21   42 1
    40   22   23 2
    41   22   24 1
    42   24   25 1
    43   25   43 1
    44   25   44 1
    45   25   45 1
@<TRIPOS>MOLECULE
ZINC34771310
   66    67     0     0     0
SMALL
USER_CHARGES

@<TRIPOS>ATOM
      1 C1         -2.2863   -3.0897    0.1437 C.3       1 <0>        -0.1428
      2 C2         -1.9066   -1.7948    0.8648 C.3       1 <0>        -0.1138
      3 C3         -0.8966   -2.1046    1.9715 C.3       1 <0>        -0.1344
      4 C4         -1.2935   -0.8327   -0.1199 C.2       1 <0>         0.5247
      5 O1         -0.0934   -0.6576   -0.1296 O.2       1 <0>        -0.5301
      6 N1         -2.0787   -0.1670   -0.9897 N.am      1 <0>        -0.5905
      7 C5         -3.5356   -0.3000   -0.9114 C.3       1 <0>         0.1082
      8 C6         -4.1036    0.8196   -0.0368 C.3       1 <0>         0.0396
      9 O2         -3.8725    2.0807   -0.6678 O.3       1 <0>        -0.3894
     10 C7         -4.3673    3.1995    0.0708 C.3       1 <0>         0.0315
     11 C8         -1.4754    0.6897   -2.0136 C.3       1 <0>         0.0979
     12 C9         -1.1705   -0.1315   -3.2398 C.2       1 <0>         0.5039
     13 O3         -1.4314   -1.3158   -3.2568 O.2       1 <0>        -0.5221
     14 N2         -0.6078    0.4501   -4.3176 N.am      1 <0>        -0.6098
     15 C10        -0.3114   -0.3482   -5.5097 C.3       1 <0>         0.1212
     16 C11        -1.5189   -0.3299   -6.4490 C.3       1 <0>        -0.0887
     17 C12        -1.2140   -1.1511   -7.6753 C.ar      1 <0>        -0.0792
     18 C13        -0.6315   -0.5541   -8.7779 C.ar      1 <0>        -0.1120
     19 C14        -0.3499   -1.3032   -9.9051 C.ar      1 <0>        -0.1707
     20 C15        -0.6509   -2.6555   -9.9314 C.ar      1 <0>         0.0971
     21 C16        -1.2367   -3.2564   -8.8215 C.ar      1 <0>         0.1021
     22 C17        -1.5120   -2.5009   -7.6930 C.ar      1 <0>        -0.1643
     23 O4         -1.5340   -4.5833   -8.8424 O.3       1 <0>        -0.3067
     24 C18        -2.1340   -5.1324   -7.6675 C.3       1 <0>         0.0259
     25 O5         -0.3748   -3.3936  -11.0397 O.3       1 <0>        -0.3071
     26 C19         0.2262   -2.7101  -12.1414 C.3       1 <0>         0.0261
     27 C20        -0.2927    1.8807   -4.2971 C.3       1 <0>         0.1891
     28 C21         1.1064    2.0793   -3.7736 C.2       1 <0>        -0.0471
     29 C22         2.2267    2.1169   -4.5172 C.2       1 <0>        -0.1870
     30 C23         3.3041    2.3210   -3.6248 C.2       1 <0>        -0.2187
     31 C24         2.7778    2.3960   -2.3891 C.2       1 <0>        -0.0246
     32 O6          1.4457    2.2547   -2.4860 O.3       1 <0>        -0.1695
     33 H1         -2.6158   -3.8289    0.8738 H         1 <0>         0.0694
     34 H2         -3.0936   -2.8900   -0.5608 H         1 <0>         0.0627
     35 H3         -1.4199   -3.4728   -0.3955 H         1 <0>         0.0637
     36 H4         -2.7991   -1.3474    1.3022 H         1 <0>         0.0904
     37 H5         -1.3401   -2.8004    2.6837 H         1 <0>         0.0634
     38 H6         -0.0041   -2.5520    1.5341 H         1 <0>         0.0659
     39 H7         -0.6261   -1.1821    2.4852 H         1 <0>         0.0581
     40 H8         -3.9612   -0.2305   -1.9124 H         1 <0>         0.0886
     41 H9         -3.7893   -1.2661   -0.4750 H         1 <0>         0.1046
     42 H10        -5.1753    0.6699    0.0944 H         1 <0>         0.0641
     43 H11        -3.6128    0.8049    0.9364 H         1 <0>         0.0537
     44 H12        -5.4444    3.0992    0.2042 H         1 <0>         0.0425
     45 H13        -3.8820    3.2342    1.0462 H         1 <0>         0.0415
     46 H14        -4.1528    4.1185   -0.4747 H         1 <0>         0.0872
     47 H15        -2.1700    1.4882   -2.2746 H         1 <0>         0.1165
     48 H16        -0.5526    1.1226   -1.6275 H         1 <0>         0.1159
     49 H17         0.5541    0.0717   -6.0222 H         1 <0>         0.0802
     50 H18        -0.0960   -1.3753   -5.2148 H         1 <0>         0.0860
     51 H19        -2.3844   -0.7498   -5.9365 H         1 <0>         0.0766
     52 H20        -1.7343    0.6971   -6.7439 H         1 <0>         0.0761
     53 H21        -0.3964    0.4998   -8.7587 H         1 <0>         0.1269
     54 H22         0.1045   -0.8342  -10.7654 H         1 <0>         0.1356
     55 H23        -1.9632   -2.9657   -6.8288 H         1 <0>         0.1360
     56 H24        -2.3189   -6.1961   -7.8170 H         1 <0>         0.1013
     57 H25        -1.4632   -4.9959   -6.8192 H         1 <0>         0.0558
     58 H26        -3.0777   -4.6239   -7.4699 H         1 <0>         0.0549
     59 H27        -0.4353   -1.9120  -12.4783 H         1 <0>         0.0548
     60 H28         1.1794   -2.2840  -11.8283 H         1 <0>         0.0548
     61 H29         0.3929   -3.4128  -12.9578 H         1 <0>         0.1009
     62 H30        -0.3629    2.2827   -5.3078 H         1 <0>         0.1157
     63 H31        -0.9999    2.3993   -3.6498 H         1 <0>         0.0988
     64 H32         2.2909    2.0109   -5.5901 H         1 <0>         0.1471
     65 H33         4.3492    2.4010   -3.8851 H         1 <0>         0.1487
     66 H34         3.3320    2.5480   -1.4747 H         1 <0>         0.2026
@<TRIPOS>BOND
     1    1    2 1
     2    1   33 1
     3    1   34 1
     4    1   35 1
     5    2    3 1
     6    2    4 1
     7    2   36 1
     8    3   37 1
     9    3   38 1
    10    3   39 1
    11    4    5 2
    12    4    6 am
    13    6    7 1
    14    6   11 1
    15    7    8 1
    16    7   40 1
    17    7   41 1
    18    8    9 1
    19    8   42 1
    20    8   43 1
    21    9   10 1
    22   10   44 1
    23   10   45 1
    24   10   46 1
    25   11   12 1
    26   11   47 1
    27   11   48 1
    28   12   13 2
    29   12   14 am
    30   14   15 1
    31   14   27 1
    32   15   16 1
    33   15   49 1
    34   15   50 1
    35   16   17 1
    36   16   51 1
    37   16   52 1
    38   17   22 ar
    39   17   18 ar
    40   18   19 ar
    41   18   53 1
    42   19   20 ar
    43   19   54 1
    44   20   21 ar
    45   20   25 1
    46   21   22 ar
    47   21   23 1
    48   22   55 1
    49   23   24 1
    50   24   56 1
    51   24   57 1
    52   24   58 1
    53   25   26 1
    54   26   59 1
    55   26   60 1
    56   26   61 1
    57   27   28 1
    58   27   62 1
    59   27   63 1
    60   28   32 1
    61   28   29 2
    62   29   30 1
    63   29   64 1
    64   30   31 2
    65   30   65 1
    66   31   32 1
    67   31   66 1
@<TRIPOS>MOLECULE
ZINC39565537
   48    48     0     0     0
SMALL
USER_CHARGES

@<TRIPOS>ATOM
      1 C1         -0.0187    1.5258    0.0104 C.3       1 <0>        -0.1539
      2 C2          0.0021   -0.0041    0.0020 C.3       1 <0>         0.0598
      3 O1         -1.3386   -0.4987    0.0122 O.3       1 <0>        -0.3522
      4 C3         -1.4964   -1.8317    0.0065 C.2       1 <0>         0.4617
      5 O2         -0.5283   -2.5546   -0.0066 O.2       1 <0>        -0.5029
      6 C4         -2.8809   -2.4266    0.0165 C.3       1 <0>        -0.1137
      7 C5         -2.7801   -3.9532    0.0074 C.3       1 <0>        -0.0615
      8 C6         -4.1647   -4.5481    0.0174 C.2       1 <0>        -0.0998
      9 C7         -4.8416   -4.9375   -1.0598 C.2       1 <0>        -0.1042
     10 C8         -6.1676   -5.4622   -0.5560 C.3       1 <0>         0.0548
     11 H1         -6.2827   -6.5129   -0.8220 H         1 <0>         0.1697
     12 N1         -6.1230   -5.3101    0.9038 N.2       1 <0>        -0.3701
     13 C9         -4.9741   -4.7940    1.2189 C.2       1 <0>         0.0962
     14 C10        -4.5395   -4.4890    2.6038 C.2       1 <0>         0.3989
     15 O3         -5.2740   -4.7257    3.5333 O.2       1 <0>        -0.4104
     16 C11        -7.3009   -4.6526   -1.1315 C.2       1 <0>         0.4911
     17 O4         -7.8236   -3.7884   -0.4684 O.2       1 <0>        -0.4746
     18 O5         -7.7297   -4.8916   -2.3808 O.3       1 <0>        -0.3489
     19 C12        -8.8077   -4.0864   -2.8620 C.3       1 <0>         0.0600
     20 C13        -9.1551   -4.5014   -4.2930 C.3       1 <0>        -0.1531
     21 C14        -4.3804   -4.8690   -2.4929 C.3       1 <0>        -0.0579
     22 C15        -3.7760   -6.1912   -2.8898 C.2       1 <0>         0.4663
     23 O6         -3.7251   -7.0963   -2.0910 O.2       1 <0>        -0.4958
     24 O7         -3.2943   -6.3635   -4.1308 O.3       1 <0>        -0.3495
     25 C16        -2.7357   -7.6423   -4.4382 C.3       1 <0>         0.0603
     26 C17        -2.2427   -7.6487   -5.8865 C.3       1 <0>        -0.1534
     27 H2          1.0039    1.9031    0.0027 H         1 <0>         0.0809
     28 H3         -0.5459    1.8868   -0.8726 H         1 <0>         0.0672
     29 H4         -0.5289    1.8773    0.9072 H         1 <0>         0.0677
     30 H5          0.5123   -0.3556   -0.8948 H         1 <0>         0.0688
     31 H6          0.5293   -0.3651    0.8851 H         1 <0>         0.0694
     32 H7         -3.4091   -2.1027    0.9134 H         1 <0>         0.1132
     33 H8         -3.4261   -2.0931   -0.8665 H         1 <0>         0.1114
     34 H9         -2.2520   -4.2771   -0.8894 H         1 <0>         0.0923
     35 H10        -2.2350   -4.2867    0.8904 H         1 <0>         0.0992
     36 H11        -3.5665   -4.0552    2.7812 H         1 <0>         0.1344
     37 H12        -9.6789   -4.2254   -2.2217 H         1 <0>         0.0721
     38 H13        -8.5114   -3.0375   -2.8496 H         1 <0>         0.0720
     39 H14        -9.9774   -3.8873   -4.6600 H         1 <0>         0.0837
     40 H15        -8.2840   -4.3624   -4.9332 H         1 <0>         0.0686
     41 H16        -9.4514   -5.5503   -4.3053 H         1 <0>         0.0685
     42 H17        -5.2310   -4.6500   -3.1383 H         1 <0>         0.1291
     43 H18        -3.6333   -4.0822   -2.5969 H         1 <0>         0.1278
     44 H19        -1.8994   -7.8439   -3.7688 H         1 <0>         0.0699
     45 H20        -3.4972   -8.4117   -4.3102 H         1 <0>         0.0698
     46 H21        -3.0790   -7.4471   -6.5559 H         1 <0>         0.0678
     47 H22        -1.4812   -6.8794   -6.0145 H         1 <0>         0.0677
     48 H23        -1.8166   -8.6242   -6.1210 H         1 <0>         0.0815
@<TRIPOS>BOND
     1    1    2 1
     2    1   27 1
     3    1   28 1
     4    1   29 1
     5    2    3 1
     6    2   30 1
     7    2   31 1
     8    3    4 1
     9    4    5 2
    10    4    6 1
    11    6    7 1
    12    6   32 1
    13    6   33 1
    14    7    8 1
    15    7   34 1
    16    7   35 1
    17    8   13 1
    18    8    9 2
    19    9   10 1
    20    9   21 1
    21   10   11 1
    22   10   12 1
    23   10   16 1
    24   12   13 2
    25   13   14 1
    26   14   15 2
    27   14   36 1
    28   16   17 2
    29   16   18 1
    30   18   19 1
    31   19   20 1
    32   19   37 1
    33   19   38 1
    34   20   39 1
    35   20   40 1
    36   20   41 1
    37   21   22 1
    38   21   42 1
    39   21   43 1
    40   22   23 2
    41   22   24 1
    42   24   25 1
    43   25   26 1
    44   25   44 1
    45   25   45 1
    46   26   46 1
    47   26   47 1
    48   26   48 1
@<TRIPOS>MOLECULE
ZINC60723955
   50    50     0     0     0
SMALL
USER_CHARGES

@<TRIPOS>ATOM
      1 C1         -0.0187    1.5258    0.0104 C.3       1 <0>        -0.1524
      2 C2          0.0021   -0.0041    0.0020 C.3       1 <0>         0.0609
      3 O1          0.6709   -0.4649   -1.1737 O.3       1 <0>        -0.3534
      4 C3          0.7755   -1.7935   -1.3341 C.2       1 <0>         0.4431
      5 O2          0.3143   -2.5404   -0.5039 O.2       1 <0>        -0.4964
      6 C4          1.4679   -2.3535   -2.5498 C.3       1 <0>         0.1251
      7 N1          1.4501   -3.8172   -2.4911 N.am      1 <0>        -0.5945
      8 C5          0.3365   -4.5606   -3.0857 C.3       1 <0>         0.1109
      9 C6          0.6581   -4.8784   -4.5474 C.3       1 <0>         0.0373
     10 O3          1.7783   -5.7636   -4.6070 O.3       1 <0>        -0.3833
     11 C7          2.1632   -6.1254   -5.9348 C.3       1 <0>         0.0324
     12 C8          2.4581   -4.4798   -1.8901 C.2       1 <0>         0.5674
     13 O4          3.3834   -3.8622   -1.3961 O.2       1 <0>        -0.5396
     14 C9          2.4403   -5.9411   -1.8315 C.2       1 <0>        -0.1853
     15 C10         3.4499   -6.6048   -1.2296 C.2       1 <0>        -0.0252
     16 C11         3.4320   -8.0735   -1.1707 C.ar      1 <0>        -0.0537
     17 C12         2.3720   -8.7859   -1.7431 C.ar      1 <0>        -0.0951
     18 C13         2.3580  -10.1622   -1.6869 C.ar      1 <0>        -0.1554
     19 C14         3.3931  -10.8459   -1.0629 C.ar      1 <0>         0.0855
     20 C15         4.4526  -10.1432   -0.4903 C.ar      1 <0>         0.1153
     21 C16         4.4777   -8.7637   -0.5471 C.ar      1 <0>        -0.1553
     22 O5          5.4643  -10.8170    0.1198 O.3       1 <0>        -0.3059
     23 C17         6.5173  -10.0336    0.6849 C.3       1 <0>         0.0237
     24 O6          3.3732  -12.2029   -1.0099 O.3       1 <0>        -0.3076
     25 C18         2.2581  -12.8596   -1.6160 C.3       1 <0>         0.4101
     26 F1          1.0765  -12.4418   -0.9942 F         1 <0>        -0.1981
     27 F2          2.2090  -12.5358   -2.9761 F         1 <0>        -0.1982
     28 H1          1.0039    1.9031    0.0027 H         1 <0>         0.0677
     29 H2         -0.5459    1.8868   -0.8726 H         1 <0>         0.0670
     30 H3         -0.5289    1.8773    0.9072 H         1 <0>         0.0803
     31 H4          0.5293   -0.3651    0.8851 H         1 <0>         0.0676
     32 H5         -1.0205   -0.3814    0.0098 H         1 <0>         0.0672
     33 H6          0.9501   -2.0196   -3.4490 H         1 <0>         0.1221
     34 H7          2.4999   -2.0034   -2.5737 H         1 <0>         0.1294
     35 H8          0.1857   -5.4900   -2.5365 H         1 <0>         0.0963
     36 H9         -0.5704   -3.9579   -3.0359 H         1 <0>         0.0977
     37 H10        -0.2050   -5.3526   -5.0145 H         1 <0>         0.0655
     38 H11         0.8959   -3.9553   -5.0760 H         1 <0>         0.0554
     39 H12         1.3312   -6.6254   -6.4308 H         1 <0>         0.0422
     40 H13         2.4322   -5.2282   -6.4923 H         1 <0>         0.0408
     41 H14         3.0196   -6.7984   -5.8943 H         1 <0>         0.0868
     42 H15         1.6194   -6.4891   -2.2698 H         1 <0>         0.1376
     43 H16         4.2708   -6.0567   -0.7913 H         1 <0>         0.1348
     44 H17         1.5652   -8.2568   -2.2284 H         1 <0>         0.1374
     45 H18         1.5395  -10.7109   -2.1290 H         1 <0>         0.1436
     46 H19         5.3001   -8.2186   -0.1078 H         1 <0>         0.1444
     47 H20         6.9904   -9.4415   -0.0985 H         1 <0>         0.0580
     48 H21         6.1077   -9.3689    1.4455 H         1 <0>         0.0580
     49 H22         7.2572  -10.6929    1.1389 H         1 <0>         0.1042
     50 H23         2.3663  -13.9383   -1.5030 H         1 <0>         0.1839
@<TRIPOS>BOND
     1    1    2 1
     2    1   28 1
     3    1   29 1
     4    1   30 1
     5    2    3 1
     6    2   31 1
     7    2   32 1
     8    3    4 1
     9    4    5 2
    10    4    6 1
    11    6    7 1
    12    6   33 1
    13    6   34 1
    14    7    8 1
    15    7   12 am
    16    8    9 1
    17    8   35 1
    18    8   36 1
    19    9   10 1
    20    9   37 1
    21    9   38 1
    22   10   11 1
    23   11   39 1
    24   11   40 1
    25   11   41 1
    26   12   13 2
    27   12   14 1
    28   14   15 2
    29   14   42 1
    30   15   16 1
    31   15   43 1
    32   16   21 ar
    33   16   17 ar
    34   17   18 ar
    35   17   44 1
    36   18   19 ar
    37   18   45 1
    38   19   20 ar
    39   19   24 1
    40   20   21 ar
    41   20   22 1
    42   21   46 1
    43   22   23 1
    44   23   47 1
    45   23   48 1
    46   23   49 1
    47   24   25 1
    48   25   26 1
    49   25   27 1
    50   25   50 1
@<TRIPOS>MOLECULE
ZINC67276347
   54    54     0     0     0
SMALL
USER_CHARGES

@<TRIPOS>ATOM
      1 C1         -0.2778    0.8198    0.4632 C.3       1 <0>        -0.1506
      2 C2         -0.6830   -0.5754   -0.0164 C.3       1 <0>        -0.1234
      3 C3          0.2525   -1.0191   -1.1429 C.3       1 <0>         0.0540
      4 O1         -0.1259   -2.3222   -1.5909 O.3       1 <0>        -0.2976
      5 C4          0.6088   -2.8664   -2.5950 C.ar      1 <0>         0.1320
      6 C5          1.6763   -2.1606   -3.1332 C.ar      1 <0>        -0.1757
      7 C6          2.4249   -2.7085   -4.1521 C.ar      1 <0>        -0.0911
      8 C7          2.1106   -3.9771   -4.6457 C.ar      1 <0>        -0.1311
      9 C8          1.0364   -4.6878   -4.1039 C.ar      1 <0>        -0.1178
     10 C9          0.2930   -4.1349   -3.0792 C.ar      1 <0>         0.1042
     11 O2         -0.7502   -4.8259   -2.5464 O.3       1 <0>        -0.2994
     12 C10        -1.0170   -6.1199   -3.0909 C.3       1 <0>         0.0533
     13 C11        -2.2168   -6.7388   -2.3709 C.3       1 <0>        -0.1215
     14 C12        -2.5024   -8.1242   -2.9539 C.3       1 <0>        -0.1512
     15 C13         2.9112   -4.5652   -5.7375 C.2       1 <0>         0.5839
     16 O3          3.3539   -5.6922   -5.6276 O.2       1 <0>        -0.5097
     17 N1          3.1513   -3.8528   -6.8561 N.am      1 <0>        -0.5826
     18 C14         3.8814   -4.4627   -7.9703 C.3       1 <0>         0.1273
     19 C15         2.9169   -5.2135   -8.8518 C.2       1 <0>         0.4432
     20 O4          1.7404   -5.2367   -8.5775 O.2       1 <0>        -0.4946
     21 O5          3.3648   -5.8564   -9.9417 O.3       1 <0>        -0.3514
     22 C16         2.3950   -6.5474  -10.7316 C.3       1 <0>         0.0342
     23 C17         2.6824   -2.4686   -6.9579 C.3       1 <0>         0.1135
     24 C18         3.7846   -1.5324   -6.5340 C.2       1 <0>         0.4356
     25 O6          4.8522   -1.9758   -6.1829 O.2       1 <0>        -0.4884
     26 O7          3.5801   -0.2058   -6.5465 O.3       1 <0>        -0.3489
     27 C19         4.6686    0.6222   -6.1321 C.3       1 <0>         0.0315
     28 H1          0.7477    0.7938    0.8316 H         1 <0>         0.0578
     29 H2         -0.3483    1.5238   -0.3660 H         1 <0>         0.0581
     30 H3         -0.9443    1.1358    1.2658 H         1 <0>         0.0660
     31 H4         -0.6125   -1.2794    0.8128 H         1 <0>         0.0748
     32 H5         -1.7085   -0.5494   -0.3848 H         1 <0>         0.0751
     33 H6          0.1820   -0.3151   -1.9721 H         1 <0>         0.0651
     34 H7          1.2780   -1.0451   -0.7745 H         1 <0>         0.0642
     35 H8          1.9204   -1.1798   -2.7526 H         1 <0>         0.1434
     36 H9          3.2544   -2.1570   -4.5695 H         1 <0>         0.1262
     37 H10         0.7901   -5.6686   -4.4830 H         1 <0>         0.1448
     38 H11        -1.2391   -6.0280   -4.1541 H         1 <0>         0.0637
     39 H12        -0.1436   -6.7580   -2.9560 H         1 <0>         0.0645
     40 H13        -1.9947   -6.8307   -1.3078 H         1 <0>         0.0746
     41 H14        -3.0902   -6.1007   -2.5058 H         1 <0>         0.0745
     42 H15        -3.3572   -8.5651   -2.4410 H         1 <0>         0.0658
     43 H16        -2.7245   -8.0322   -4.0171 H         1 <0>         0.0580
     44 H17        -1.6290   -8.7622   -2.8191 H         1 <0>         0.0583
     45 H18         4.3740   -3.6834   -8.5518 H         1 <0>         0.1267
     46 H19         4.6295   -5.1527   -7.5801 H         1 <0>         0.1350
     47 H20         2.8886   -7.0223  -11.5794 H         1 <0>         0.1048
     48 H21         1.9061   -7.3082  -10.1230 H         1 <0>         0.0617
     49 H22         1.6505   -5.8389  -11.0947 H         1 <0>         0.0616
     50 H23         2.4010   -2.2553   -7.9891 H         1 <0>         0.1284
     51 H24         1.8177   -2.3293   -6.3091 H         1 <0>         0.1362
     52 H25         4.9409    0.3775   -5.1054 H         1 <0>         0.0627
     53 H26         5.5242    0.4516   -6.7855 H         1 <0>         0.0637
     54 H27         4.3708    1.6692   -6.1893 H         1 <0>         0.1064
@<TRIPOS>BOND
     1    1    2 1
     2    1   28 1
     3    1   29 1
     4    1   30 1
     5    2    3 1
     6    2   31 1
     7    2   32 1
     8    3    4 1
     9    3   33 1
    10    3   34 1
    11    4    5 1
    12    5   10 ar
    13    5    6 ar
    14    6    7 ar
    15    6   35 1
    16    7    8 ar
    17    7   36 1
    18    8    9 ar
    19    8   15 1
    20    9   10 ar
    21    9   37 1
    22   10   11 1
    23   11   12 1
    24   12   13 1
    25   12   38 1
    26   12   39 1
    27   13   14 1
    28   13   40 1
    29   13   41 1
    30   14   42 1
    31   14   43 1
    32   14   44 1
    33   15   16 2
    34   15   17 am
    35   17   18 1
    36   17   23 1
    37   18   19 1
    38   18   45 1
    39   18   46 1
    40   19   20 2
    41   19   21 1
    42   21   22 1
    43   22   47 1
    44   22   48 1
    45   22   49 1
    46   23   24 1
    47   23   50 1
    48   23   51 1
    49   24   25 2
    50   24   26 1
    51   26   27 1
    52   27   52 1
    53   27   53 1
    54   27   54 1
@<TRIPOS>MOLECULE
ZINC13422234
   52    54     0     0     0
SMALL
USER_CHARGES
4-[(1S)-1-methyl-2-oxo-2-[[4-(1-piperidyl)phenyl]amino]ethoxy]benzene-1,3-dicarboxylic acid
@<TRIPOS>ATOM
      1 C1          5.6833    3.7807   -1.3964 C.3       1 <0>        -0.1739
      2 C2          4.9808    3.5021   -0.0660 C.3       1 <0>         0.0592
      3 H1          5.5418    2.7516    0.4909 H         1 <0>         0.0971
      4 C3          4.9070    4.7739    0.7391 C.2       1 <0>         0.5133
      5 O1          3.8288    5.2231    1.0659 O.2       1 <0>        -0.4697
      6 N1          6.0392    5.4121    1.0961 N.am      1 <0>        -0.6787
      7 C4          5.9767    6.5347    1.9328 C.ar      1 <0>         0.1383
      8 C5          6.8969    7.5637    1.7835 C.ar      1 <0>        -0.1248
      9 C6          6.8325    8.6719    2.6045 C.ar      1 <0>        -0.1523
     10 C7          5.8536    8.7527    3.5863 C.ar      1 <0>         0.0850
     11 C8          4.9365    7.7209    3.7390 C.ar      1 <0>        -0.1149
     12 C9          4.9982    6.6151    2.9146 C.ar      1 <0>        -0.0957
     13 N2          5.7909    9.8735    4.4212 N.pl3     1 <0>        -0.4861
     14 C10         4.4641   10.4999    4.3625 C.3       1 <0>         0.0546
     15 C11         4.3858   11.6294    5.3921 C.3       1 <0>        -0.1186
     16 C12         5.4732   12.6645    5.0907 C.3       1 <0>        -0.1228
     17 C13         6.8410   11.9766    5.1103 C.3       1 <0>        -0.1177
     18 C14         6.8481   10.8370    4.0889 C.3       1 <0>         0.0505
     19 O2          3.6593    3.0199   -0.3170 O.3       1 <0>        -0.2402
     20 C15         3.5225    1.6919   -0.5466 C.ar      1 <0>         0.1458
     21 C16         4.6490    0.8845   -0.6478 C.ar      1 <0>        -0.2521
     22 C17         4.5161   -0.4640   -0.8871 C.ar      1 <0>        -0.0408
     23 C18         3.2445   -1.0342   -1.0247 C.ar      1 <0>        -0.1732
     24 C19         2.1077   -0.2354   -0.9193 C.ar      1 <0>        -0.0021
     25 C20         2.2422    1.1301   -0.6770 C.ar      1 <0>        -0.1623
     26 C21         1.0448    1.9830   -0.5640 C.2       1 <0>         0.4942
     27 O3          1.1647    3.1735   -0.3526 O.co2     1 <0>        -0.6157
     28 C22         3.1085   -2.4803   -1.2816 C.2       1 <0>         0.4990
     29 O4          2.0052   -2.9750   -1.4014 O.co2     1 <0>        -0.6340
     30 H2          5.7366    2.8609   -1.9787 H         1 <0>         0.0816
     31 H3          5.1223    4.5313   -1.9532 H         1 <0>         0.0723
     32 H4          6.6913    4.1486   -1.2049 H         1 <0>         0.0656
     33 H5          6.8972    5.0944    0.7740 H         1 <0>         0.4077
     34 H6          7.6607    7.4990    1.0227 H         1 <0>         0.1243
     35 H7          7.5455    9.4743    2.4854 H         1 <0>         0.1261
     36 H8          4.1749    7.7837    4.5022 H         1 <0>         0.1269
     37 H9          4.2851    5.8127    3.0333 H         1 <0>         0.1408
     38 H10         4.2979   10.9059    3.3647 H         1 <0>         0.0423
     39 H11         3.7003    9.7541    4.5828 H         1 <0>         0.0839
     40 H12         4.5381   11.2220    6.3916 H         1 <0>         0.0719
     41 H13         3.4062   12.1043    5.3376 H         1 <0>         0.0696
     42 H14         5.4491   13.4489    5.8471 H         1 <0>         0.0636
     43 H15         5.2986   13.1002    4.1070 H         1 <0>         0.0595
     44 H16         7.0320   11.5746    6.1053 H         1 <0>         0.0713
     45 H17         7.6156   12.6995    4.8543 H         1 <0>         0.0674
     46 H18         7.8159   10.3360    4.1104 H         1 <0>         0.0811
     47 H19         6.6708   11.2414    3.0923 H         1 <0>         0.0429
     48 H20         5.6326    1.3179   -0.5428 H         1 <0>         0.1158
     49 H21         5.3958   -1.0851   -0.9688 H         1 <0>         0.1254
     50 H22         1.1261   -0.6730   -1.0254 H         1 <0>         0.1419
     51 O5         -0.1824    1.4422   -0.6950 O.co2     1 <0>        -0.7683
     52 O6          4.2078   -3.2528   -1.3835 O.co2     1 <0>        -0.7750
@<TRIPOS>BOND
     1    1    2 1
     2    1   30 1
     3    1   31 1
     4    1   32 1
     5    2    3 1
     6    2    4 1
     7    2   19 1
     8    4    5 2
     9    4    6 am
    10    6    7 1
    11    6   33 1
    12    7   12 ar
    13    7    8 ar
    14    8    9 ar
    15    8   34 1
    16    9   10 ar
    17    9   35 1
    18   10   11 ar
    19   10   13 1
    20   11   12 ar
    21   11   36 1
    22   12   37 1
    23   13   18 1
    24   13   14 1
    25   14   15 1
    26   14   38 1
    27   14   39 1
    28   15   16 1
    29   15   40 1
    30   15   41 1
    31   16   17 1
    32   16   42 1
    33   16   43 1
    34   17   18 1
    35   17   44 1
    36   17   45 1
    37   18   46 1
    38   18   47 1
    39   19   20 1
    40   20   25 ar
    41   20   21 ar
    42   21   22 ar
    43   21   48 1
    44   22   23 ar
    45   22   49 1
    46   23   24 ar
    47   23   28 1
    48   24   25 ar
    49   24   50 1
    50   25   26 1
    51   26   27 2
    52   26   51 1
    53   28   29 2
    54   28   52 1
@<TRIPOS>MOLECULE
ZINC16906107
   42    44     0     0     0
SMALL
USER_CHARGES
4-[(E)-[2-[(4-ethoxycarbonylphenyl)amino]-4-oxo-thiazol-5-ylidene]methyl]benzoic acid
@<TRIPOS>ATOM
      1 C1          7.9499    1.3556    6.2697 C.3       1 <0>        -0.1544
      2 C2          8.1879    2.2973    5.0875 C.3       1 <0>         0.0614
      3 O1          6.9168    2.6269    4.4679 O.3       1 <0>        -0.3552
      4 C3          6.9509    3.4532    3.4040 C.2       1 <0>         0.5200
      5 O2          8.0137    3.8865    3.0050 O.2       1 <0>        -0.5337
      6 C4          5.6986    3.8317    2.7240 C.ar      1 <0>        -0.2009
      7 C5          5.7322    4.6890    1.6199 C.ar      1 <0>        -0.0347
      8 C6          4.5614    5.0399    0.9873 C.ar      1 <0>        -0.1661
      9 C7          3.3448    4.5423    1.4454 C.ar      1 <0>         0.2207
     10 C8          3.3072    3.6929    2.5475 C.ar      1 <0>        -0.1707
     11 C9          4.4747    3.3337    3.1815 C.ar      1 <0>        -0.0390
     12 N1          2.1621    4.8998    0.8032 N.2       1 <0>        -0.5939
     13 C10         1.1262    4.0058    0.7276 C.2       1 <0>         0.4647
     14 N2          1.1035    2.7408    1.1167 N.2       1 <0>        -0.7106
     15 C11         0.0380    1.9819    0.9889 C.2       1 <0>         0.5264
     16 O3          0.0294    0.8170    1.3510 O.2       1 <0>        -0.5008
     17 C12        -1.1532    2.6213    0.3730 C.2       1 <0>        -0.2065
     18 C13        -2.3777    2.1034    0.1086 C.2       1 <0>         0.0083
     19 C14        -2.6162    0.6619    0.2689 C.ar      1 <0>        -0.0766
     20 C15        -1.6393   -0.2586   -0.1299 C.ar      1 <0>        -0.0578
     21 C16        -1.8606   -1.6025    0.0255 C.ar      1 <0>        -0.0859
     22 C17        -3.0657   -2.0545    0.5711 C.ar      1 <0>        -0.1046
     23 C18        -4.0440   -1.1368    0.9643 C.ar      1 <0>        -0.1034
     24 C19        -3.8228    0.2079    0.8153 C.ar      1 <0>        -0.1151
     25 C20        -3.3051   -3.5028    0.7327 C.2       1 <0>         0.4914
     26 O4         -4.3519   -3.8961    1.2071 O.co2     1 <0>        -0.6391
     27 O5         -2.3625   -4.3878    0.3539 O.co2     1 <0>        -0.7576
     28 S1         -0.5179    4.2675    0.0811 S.3       1 <0>        -0.1442
     29 H1          8.9128    1.1059    6.7391 H         1 <0>         0.0754
     30 H2          7.4660    0.4344    5.9130 H         1 <0>         0.0685
     31 H3          7.2998    1.8496    7.0068 H         1 <0>         0.0664
     32 H4          8.6718    3.2185    5.4442 H         1 <0>         0.0655
     33 H5          8.8380    1.8034    4.3504 H         1 <0>         0.0666
     34 H6          6.6758    5.0752    1.2638 H         1 <0>         0.1240
     35 H7          4.5867    5.7018    0.1343 H         1 <0>         0.1237
     36 H8          2.3612    3.3122    2.9030 H         1 <0>         0.1343
     37 H9          4.4453    2.6713    4.0340 H         1 <0>         0.1224
     38 H10        -3.1928    2.7619   -0.2259 H         1 <0>         0.1308
     39 H11        -0.7100    0.0902   -0.5556 H         1 <0>         0.1161
     40 H12        -1.1055   -2.3126   -0.2779 H         1 <0>         0.1269
     41 H13        -4.9745   -1.4873    1.3860 H         1 <0>         0.1230
     42 H14        -4.5788    0.9167    1.1195 H         1 <0>         0.1143
@<TRIPOS>BOND
     1    1    2 1
     2    1   29 1
     3    1   30 1
     4    1   31 1
     5    2    3 1
     6    2   32 1
     7    2   33 1
     8    3    4 1
     9    4    5 2
    10    4    6 1
    11    6   11 ar
    12    6    7 ar
    13    7    8 ar
    14    7   34 1
    15    8    9 ar
    16    8   35 1
    17    9   10 ar
    18    9   12 1
    19   10   11 ar
    20   10   36 1
    21   11   37 1
    22   12   13 1
    23   13   28 1
    24   13   14 2
    25   14   15 1
    26   15   16 2
    27   15   17 1
    28   17   18 2
    29   17   28 1
    30   18   19 1
    31   18   38 1
    32   19   24 ar
    33   19   20 ar
    34   20   21 ar
    35   20   39 1
    36   21   22 ar
    37   21   40 1
    38   22   23 ar
    39   22   25 1
    40   23   24 ar
    41   23   41 1
    42   24   42 1
    43   25   26 2
    44   25   27 1
@<TRIPOS>MOLECULE
ZINC13092991
   47    49     0     0     0
SMALL
USER_CHARGES

@<TRIPOS>ATOM
      1 C1          1.2153   -0.6799    0.0032 C.ar      1 <0>        -0.1733
      2 C2          2.4001    0.0300   -0.0052 C.ar      1 <0>        -0.0995
      3 C3          2.3788    1.4144   -0.0149 C.ar      1 <0>         0.0275
      4 C4          1.1704    2.0903   -0.0157 C.ar      1 <0>        -0.1013
      5 C5         -0.0169    1.3845   -0.0068 C.ar      1 <0>        -0.1761
      6 C6          0.0021   -0.0041    0.0020 C.ar      1 <0>         0.2175
      7 N1         -1.1985   -0.7206    0.0101 N.pl3     1 <0>        -0.6246
      8 C7         -2.4858   -0.0219    0.1307 C.3       1 <0>         0.1063
      9 C8         -3.3746   -0.4242   -1.0527 C.3       1 <0>         0.0983
     10 N2         -3.3719   -1.8895   -1.1652 N.am      1 <0>        -0.6134
     11 C9         -2.0846   -2.5882   -1.2858 C.3       1 <0>         0.0879
     12 C10        -1.1961   -2.1855   -0.1081 C.3       1 <0>         0.1039
     13 C11        -4.5292   -2.5802   -1.1574 C.2       1 <0>         0.5413
     14 O1         -5.5854   -1.9926   -1.0569 O.2       1 <0>        -0.5192
     15 C12        -4.5108   -4.0826   -1.2736 C.3       1 <0>        -0.1431
     16 S1         -6.2113   -4.7130   -1.2327 S.3       1 <0>         0.0243
     17 C13        -6.0221   -6.4589   -1.3765 C.ar      1 <0>         0.2497
     18 N3         -7.0975   -7.2374   -1.3798 N.ar      1 <0>        -0.5767
     19 C14        -6.9488   -8.5532   -1.4885 C.ar      1 <0>         0.4210
     20 O2         -8.0284   -9.3724   -1.4951 O.3       1 <0>        -0.6590
     21 C15        -5.6590   -9.0749   -1.5962 C.ar      1 <0>        -0.0387
     22 N4         -4.6279   -8.2511   -1.5871 N.ar      1 <0>        -0.2062
     23 N5         -4.8062   -6.9805   -1.4858 N.ar      1 <0>        -0.4110
     24 C16        -5.4459  -10.5616   -1.7209 C.3       1 <0>        -0.0104
     25 C17        -5.4494  -10.9551   -3.1994 C.3       1 <0>        -0.1653
     26 C18        -5.2363  -12.4417   -3.3241 C.2       1 <0>         0.4976
     27 O3         -5.0948  -13.1233   -2.3232 O.co2     1 <0>        -0.7014
     28 O4         -5.2054  -12.9628   -4.4259 O.co2     1 <0>        -0.7189
     29 F1          3.5389    2.1068   -0.0231 F         1 <0>        -0.1498
     30 H1          1.2323   -1.7598    0.0063 H         1 <0>         0.1350
     31 H2          3.3438   -0.4952   -0.0039 H         1 <0>         0.1330
     32 H3          1.1561    3.1702   -0.0229 H         1 <0>         0.1315
     33 H4         -0.9592    1.9122   -0.0067 H         1 <0>         0.1325
     34 H5         -2.9701   -0.3059    1.0651 H         1 <0>         0.0719
     35 H6         -2.3203    1.0554    0.1143 H         1 <0>         0.0940
     36 H7         -4.3920   -0.0722   -0.8823 H         1 <0>         0.1050
     37 H8         -2.9822    0.0139   -1.9704 H         1 <0>         0.0711
     38 H9         -2.2502   -3.6655   -1.2694 H         1 <0>         0.1081
     39 H10        -1.6004   -2.3042   -2.2202 H         1 <0>         0.0767
     40 H11        -0.1791   -2.5368   -0.2821 H         1 <0>         0.0977
     41 H12        -1.5865   -2.6271    0.8089 H         1 <0>         0.0743
     42 H13        -4.0398   -4.3685   -2.2141 H         1 <0>         0.1191
     43 H14        -3.9468   -4.5045   -0.4417 H         1 <0>         0.1183
     44 H15        -4.4878  -10.8299   -1.2757 H         1 <0>         0.0614
     45 H16        -6.2474  -11.0882   -1.2029 H         1 <0>         0.0769
     46 H17        -6.4075  -10.6867   -3.6446 H         1 <0>         0.0561
     47 H18        -4.6479  -10.4284   -3.7174 H         1 <0>         0.0496
@<TRIPOS>BOND
     1    1    6 ar
     2    1    2 ar
     3    1   30 1
     4    2    3 ar
     5    2   31 1
     6    3    4 ar
     7    3   29 1
     8    4    5 ar
     9    4   32 1
    10    5    6 ar
    11    5   33 1
    12    6    7 1
    13    7   12 1
    14    7    8 1
    15    8    9 1
    16    8   34 1
    17    8   35 1
    18    9   10 1
    19    9   36 1
    20    9   37 1
    21   10   11 1
    22   10   13 am
    23   11   12 1
    24   11   38 1
    25   11   39 1
    26   12   40 1
    27   12   41 1
    28   13   14 2
    29   13   15 1
    30   15   16 1
    31   15   42 1
    32   15   43 1
    33   16   17 1
    34   17   18 ar
    35   17   23 ar
    36   18   19 ar
    37   19   20 1
    38   19   21 ar
    39   21   22 ar
    40   21   24 1
    41   22   23 ar
    42   24   25 1
    43   24   44 1
    44   24   45 1
    45   25   26 1
    46   25   46 1
    47   25   47 1
    48   26   27 2
    49   26   28 1
@<TRIPOS>MOLECULE
ZINC58961549
   49    51     0     0     0
SMALL
USER_CHARGES

@<TRIPOS>ATOM
      1 C1         -0.0037    1.5006    0.3475 C.3       1 <0>        -0.1494
      2 C2          0.0116   -0.0272    0.2672 C.3       1 <0>         0.0687
      3 O1         -1.3305   -0.5148    0.2117 O.3       1 <0>        -0.3359
      4 C3         -1.4937   -1.8512    0.1375 C.2       1 <0>         0.4714
      5 O2         -0.4165   -2.6619    0.1186 O.3       1 <0>        -0.6719
      6 C4         -2.7490   -2.3831    0.0816 C.2       1 <0>        -0.4526
      7 C5         -2.9579   -3.7593   -0.0880 C.2       1 <0>         0.3370
      8 N1         -4.1759   -4.2448   -0.1385 N.2       1 <0>        -0.6574
      9 C6         -5.2891   -3.5107   -0.0375 C.2       1 <0>         0.3595
     10 N2         -5.2837   -2.2119    0.1241 N.2       1 <0>        -0.6140
     11 C7         -3.9880   -1.5150    0.2062 C.3       1 <0>         0.2114
     12 H1         -3.9406   -0.9917    1.1612 H         1 <0>         0.0468
     13 C8         -3.9475   -0.4804   -0.8887 C.ar      1 <0>        -0.0433
     14 C9         -4.3395   -0.8163   -2.1712 C.ar      1 <0>        -0.0704
     15 C10        -4.3033    0.1318   -3.1760 C.ar      1 <0>        -0.1594
     16 C11        -3.8741    1.4185   -2.8979 C.ar      1 <0>         0.0693
     17 C12        -3.4818    1.7538   -1.6131 C.ar      1 <0>        -0.1605
     18 C13        -3.5239    0.8054   -0.6087 C.ar      1 <0>        -0.0669
     19 F1         -3.8378    2.3460   -3.8795 F         1 <0>        -0.1543
     20 S1         -6.8439   -4.3348   -0.1274 S.3       1 <0>        -0.0582
     21 C14        -8.0591   -2.9996    0.0494 C.3       1 <0>        -0.0442
     22 C15        -9.4505   -3.5755   -0.0109 C.ar      1 <0>        -0.0825
     23 C16       -10.0939   -3.6951   -1.2302 C.ar      1 <0>        -0.1187
     24 C17       -11.3675   -4.2208   -1.2930 C.ar      1 <0>        -0.0875
     25 C18       -12.0077   -4.6333   -0.1217 C.ar      1 <0>        -0.1329
     26 C19       -11.3517   -4.5099    1.1057 C.ar      1 <0>        -0.0877
     27 C20       -10.0762   -3.9873    1.1526 C.ar      1 <0>        -0.1189
     28 C21       -13.3703   -5.1962   -0.1806 C.2       1 <0>         0.5218
     29 O3        -13.9419   -5.3025   -1.2564 O.co2     1 <0>        -0.6912
     30 O4        -13.9280   -5.5564    0.8464 O.co2     1 <0>        -0.6914
     31 C22        -1.7764   -4.6863   -0.2136 C.3       1 <0>        -0.0820
     32 H2          1.0200    1.8725    0.3898 H         1 <0>         0.0657
     33 H3         -0.5013    1.9057   -0.5336 H         1 <0>         0.0616
     34 H4         -0.5408    1.8120    1.2434 H         1 <0>         0.0597
     35 H5          0.5486   -0.3386   -0.6288 H         1 <0>         0.0531
     36 H6          0.5092   -0.4324    1.1483 H         1 <0>         0.0532
     37 H7         -4.6739   -1.8201   -2.3879 H         1 <0>         0.1183
     38 H8         -4.6092   -0.1309   -4.1779 H         1 <0>         0.1232
     39 H9         -3.1465    2.7570   -1.3951 H         1 <0>         0.1223
     40 H10        -3.2221    1.0679    0.3945 H         1 <0>         0.1251
     41 H11        -7.9137   -2.5005    1.0074 H         1 <0>         0.0903
     42 H12        -7.9284   -2.2800   -0.7588 H         1 <0>         0.0904
     43 H13        -9.5978   -3.3758   -2.1348 H         1 <0>         0.1158
     44 H14       -11.8687   -4.3129   -2.2452 H         1 <0>         0.1248
     45 H15       -11.8406   -4.8269    2.0151 H         1 <0>         0.1248
     46 H16        -9.5662   -3.8953    2.1002 H         1 <0>         0.1159
     47 H17        -1.1831   -4.6445    0.6999 H         1 <0>         0.0788
     48 H18        -2.1293   -5.7054   -0.3713 H         1 <0>         0.0468
     49 H19        -1.1621   -4.3793   -1.0601 H         1 <0>         0.0755
@<TRIPOS>BOND
     1    1    2 1
     2    1   32 1
     3    1   33 1
     4    1   34 1
     5    2    3 1
     6    2   35 1
     7    2   36 1
     8    3    4 1
     9    4    5 1
    10    4    6 2
    11    6   11 1
    12    6    7 1
    13    7    8 2
    14    7   31 1
    15    8    9 1
    16    9   10 2
    17    9   20 1
    18   10   11 1
    19   11   12 1
    20   11   13 1
    21   13   18 ar
    22   13   14 ar
    23   14   15 ar
    24   14   37 1
    25   15   16 ar
    26   15   38 1
    27   16   17 ar
    28   16   19 1
    29   17   18 ar
    30   17   39 1
    31   18   40 1
    32   20   21 1
    33   21   22 1
    34   21   41 1
    35   21   42 1
    36   22   27 ar
    37   22   23 ar
    38   23   24 ar
    39   23   43 1
    40   24   25 ar
    41   24   44 1
    42   25   26 ar
    43   25   28 1
    44   26   27 ar
    45   26   45 1
    46   27   46 1
    47   28   29 2
    48   28   30 1
    49   31   47 1
    50   31   48 1
    51   31   49 1
@<TRIPOS>MOLECULE
ZINC33253186
   55    57     0     0     0
SMALL
USER_CHARGES

@<TRIPOS>ATOM
      1 C1         -1.3549   -3.0740    2.2826 C.3       1 <0>        -0.1391
      2 C2         -0.7093   -2.3161    1.1207 C.3       1 <0>        -0.6066
      3 S1          0.0115   -3.5014   -0.0481 S.o2      1 <0>         2.5154
      4 O1          1.1185   -4.1642    0.5472 O.2       1 <0>        -1.0373
      5 O2         -1.0169   -4.2425   -0.6903 O.2       1 <0>        -1.0377
      6 N1          0.6719   -2.5690   -1.2468 N.2       1 <0>        -1.1011
      7 C3          1.3211   -3.1762   -2.3286 C.ar      1 <0>         0.2550
      8 C4          1.4051   -4.5642   -2.3970 C.ar      1 <0>        -0.2545
      9 C5          2.0420   -5.1731   -3.4577 C.ar      1 <0>        -0.0964
     10 C6          2.6063   -4.4041   -4.4679 C.ar      1 <0>         0.0976
     11 C7          2.5257   -3.0033   -4.4058 C.ar      1 <0>        -0.1125
     12 C8          1.8717   -2.3954   -3.3280 C.ar      1 <0>        -0.1385
     13 C9          3.1197   -2.1805   -5.4698 C.2       1 <0>         0.5246
     14 O3          3.1377   -0.9617   -5.3627 O.co2     1 <0>        -0.7120
     15 O4          3.5961   -2.7145   -6.4623 O.co2     1 <0>        -0.6789
     16 N2          3.2489   -5.0189   -5.5360 N.pl3     1 <0>        -0.6311
     17 C10         2.4927   -5.4668   -6.7153 C.3       1 <0>         0.1650
     18 C11         2.8539   -6.9288   -6.9987 C.3       1 <0>         0.0464
     19 N3          4.3130   -7.0565   -7.1111 N.3       1 <0>        -0.5134
     20 C12         4.9772   -6.7098   -5.8475 C.3       1 <0>         0.0423
     21 C13         4.7039   -5.2333   -5.5196 C.3       1 <0>         0.1681
     22 C14         4.6910   -8.4059   -7.5516 C.3       1 <0>         0.0434
     23 C15         6.1591   -8.4307   -7.8911 C.2       1 <0>         0.5279
     24 O5          6.8249   -7.4234   -7.7773 O.2       1 <0>        -0.5046
     25 N4          6.7321   -9.5722   -8.3212 N.am      1 <0>        -0.6305
     26 C16         6.0445  -10.8579   -8.5100 C.3       1 <0>         0.1000
     27 C17         7.1009  -11.8768   -8.9869 C.3       1 <0>        -0.1312
     28 C18         8.4335  -11.2505   -8.4977 C.3       1 <0>        -0.1337
     29 C19         8.1509   -9.7369   -8.6863 C.3       1 <0>         0.1060
     30 H1         -2.1379   -3.7282    1.8993 H         1 <0>         0.0615
     31 H2         -0.5986   -3.6718    2.7913 H         1 <0>         0.0615
     32 H3         -1.7880   -2.3618    2.9849 H         1 <0>         0.0621
     33 H4         -1.4656   -1.7183    0.6120 H         1 <0>         0.1162
     34 H5          0.0737   -1.6619    1.5041 H         1 <0>         0.1162
     35 H6          0.9690   -5.1675   -1.6146 H         1 <0>         0.0892
     36 H7          2.1026   -6.2505   -3.5030 H         1 <0>         0.0868
     37 H8          1.8014   -1.3190   -3.2749 H         1 <0>         0.1126
     38 H9          1.4239   -5.3854   -6.5176 H         1 <0>         0.0580
     39 H10         2.7568   -4.8511   -7.5752 H         1 <0>         0.0566
     40 H11         2.4956   -7.5567   -6.1829 H         1 <0>         0.0280
     41 H12         2.3882   -7.2441   -7.9324 H         1 <0>         0.0657
     42 H13         4.5893   -7.3407   -5.0477 H         1 <0>         0.0206
     43 H14         6.0513   -6.8663   -5.9463 H         1 <0>         0.0809
     44 H15         5.1764   -4.5956   -6.2667 H         1 <0>         0.0603
     45 H16         5.0976   -4.9975   -4.5310 H         1 <0>         0.0546
     46 H17         4.4911   -9.1186   -6.7515 H         1 <0>         0.0535
     47 H18         4.1097   -8.6766   -8.4330 H         1 <0>         0.0957
     48 H19         5.6103  -11.1882   -7.5664 H         1 <0>         0.0670
     49 H20         5.2636  -10.7535   -9.2633 H         1 <0>         0.0675
     50 H21         6.9374  -12.8485   -8.5208 H         1 <0>         0.0798
     51 H22         7.0911  -11.9626  -10.0735 H         1 <0>         0.0752
     52 H23         8.6162  -11.4897   -7.4501 H         1 <0>         0.0752
     53 H24         9.2680  -11.5711   -9.1213 H         1 <0>         0.0809
     54 H25         8.3120   -9.4449   -9.7241 H         1 <0>         0.0645
     55 H26         8.7842   -9.1477   -8.0230 H         1 <0>         0.0773
@<TRIPOS>BOND
     1    1    2 1
     2    1   30 1
     3    1   31 1
     4    1   32 1
     5    2    3 1
     6    2   33 1
     7    2   34 1
     8    3    4 2
     9    3    5 2
    10    3    6 1
    11    6    7 1
    12    7   12 ar
    13    7    8 ar
    14    8    9 ar
    15    8   35 1
    16    9   10 ar
    17    9   36 1
    18   10   11 ar
    19   10   16 1
    20   11   12 ar
    21   11   13 1
    22   12   37 1
    23   13   14 2
    24   13   15 1
    25   16   21 1
    26   16   17 1
    27   17   18 1
    28   17   38 1
    29   17   39 1
    30   18   19 1
    31   18   40 1
    32   18   41 1
    33   19   20 1
    34   19   22 1
    35   20   21 1
    36   20   42 1
    37   20   43 1
    38   21   44 1
    39   21   45 1
    40   22   23 1
    41   22   46 1
    42   22   47 1
    43   23   24 2
    44   23   25 am
    45   25   29 1
    46   25   26 1
    47   26   27 1
    48   26   48 1
    49   26   49 1
    50   27   28 1
    51   27   50 1
    52   27   51 1
    53   28   29 1
    54   28   52 1
    55   28   53 1
    56   29   54 1
    57   29   55 1
@<TRIPOS>MOLECULE
ZINC19800416
   48    50     0     0     0
SMALL
USER_CHARGES
(2S)-2-[4-[(E)-[1-(4-ethylphenyl)-2,4,6-trioxo-hexahydropyrimidin-5-ylidene]methyl]phenoxy]propanoic acid
@<TRIPOS>ATOM
      1 C1         -4.5442    9.3761   -0.6500 C.3       1 <0>        -0.1472
      2 C2         -4.9953    7.9372   -0.3912 C.3       1 <0>        -0.0792
      3 C3         -3.8104    7.0123   -0.4993 C.ar      1 <0>        -0.0979
      4 C4         -3.0503    6.7309    0.6210 C.ar      1 <0>        -0.1122
      5 C5         -1.9635    5.8839    0.5249 C.ar      1 <0>        -0.1035
      6 C6         -1.6346    5.3148   -0.6980 C.ar      1 <0>         0.1564
      7 C7         -2.3966    5.6034   -1.8221 C.ar      1 <0>        -0.0930
      8 C8         -3.4854    6.4470   -1.7187 C.ar      1 <0>        -0.1119
      9 N1         -0.5322    4.4554   -0.7987 N.am      1 <0>        -0.5476
     10 C9          0.7012    4.9322   -0.5322 C.2       1 <0>         0.5688
     11 O1          0.8659    6.0928   -0.2073 O.2       1 <0>        -0.5322
     12 C10         1.8455    4.0066   -0.6450 C.2       1 <0>        -0.2871
     13 C11         3.1380    4.4224   -0.3882 C.2       1 <0>         0.0659
     14 C12         4.2218    3.4424   -0.3215 C.ar      1 <0>        -0.1455
     15 C13         4.0559    2.2572    0.4115 C.ar      1 <0>         0.0323
     16 C14         5.0697    1.3441    0.4660 C.ar      1 <0>        -0.1765
     17 C15         6.2694    1.5917   -0.1945 C.ar      1 <0>         0.1667
     18 C16         6.4421    2.7675   -0.9186 C.ar      1 <0>        -0.2417
     19 C17         5.4340    3.6861   -0.9852 C.ar      1 <0>        -0.0452
     20 O2          7.2748    0.6834   -0.1318 O.3       1 <0>        -0.2888
     21 C18         8.4953    1.0198   -0.7944 C.3       1 <0>         0.0359
     22 H1          8.2091    1.5452   -1.7175 H         1 <0>         0.0750
     23 C19         9.3449    1.9046    0.1200 C.3       1 <0>        -0.1527
     24 C20         9.2541   -0.2408   -1.1201 C.2       1 <0>         0.4748
     25 O3          8.7966   -1.3170   -0.8160 O.co2     1 <0>        -0.6141
     26 O4         10.4382   -0.1682   -1.7481 O.co2     1 <0>        -0.7601
     27 C21         1.5476    2.6169   -1.0450 C.2       1 <0>         0.5293
     28 O5          2.4371    1.7952   -1.1592 O.3       1 <0>        -0.5321
     29 N2          0.2617    2.2837   -1.2798 N.2       1 <0>        -0.7037
     30 C22        -0.7275    3.1803   -1.1625 C.2       1 <0>         0.6611
     31 O6         -1.8638    2.8161   -1.3934 O.2       1 <0>        -0.5861
     32 H2         -5.4090   10.0513   -0.5711 H         1 <0>         0.0522
     33 H3         -4.1128    9.4492   -1.6592 H         1 <0>         0.0557
     34 H4         -3.7865    9.6623    0.0943 H         1 <0>         0.0559
     35 H5         -5.4267    7.8641    0.6180 H         1 <0>         0.0679
     36 H6         -5.7530    7.6510   -1.1355 H         1 <0>         0.0683
     37 H7         -3.3068    7.1736    1.5721 H         1 <0>         0.1196
     38 H8         -1.3699    5.6648    1.4002 H         1 <0>         0.1189
     39 H9         -2.1405    5.1657   -2.7757 H         1 <0>         0.1221
     40 H10        -4.0812    6.6683   -2.5919 H         1 <0>         0.1201
     41 H11         3.3518    5.4903   -0.2339 H         1 <0>         0.1330
     42 H12         3.1268    2.0657    0.9278 H         1 <0>         0.1208
     43 H13         4.9419    0.4297    1.0263 H         1 <0>         0.1261
     44 H14         7.3754    2.9537   -1.4293 H         1 <0>         0.1278
     45 H15         5.5694    4.5984   -1.5472 H         1 <0>         0.1174
     46 H16        10.2845    2.1636   -0.3901 H         1 <0>         0.0760
     47 H17         9.5700    1.3616    1.0498 H         1 <0>         0.0588
     48 H18         8.7910    2.8248    0.3577 H         1 <0>         0.0514
@<TRIPOS>BOND
     1    1    2 1
     2    1   32 1
     3    1   33 1
     4    1   34 1
     5    2    3 1
     6    2   35 1
     7    2   36 1
     8    3    8 ar
     9    3    4 ar
    10    4    5 ar
    11    4   37 1
    12    5    6 ar
    13    5   38 1
    14    6    7 ar
    15    6    9 1
    16    7    8 ar
    17    7   39 1
    18    8   40 1
    19    9   30 am
    20    9   10 am
    21   10   11 2
    22   10   12 1
    23   12   13 2
    24   12   27 1
    25   13   14 1
    26   13   41 1
    27   14   19 ar
    28   14   15 ar
    29   15   16 ar
    30   15   42 1
    31   16   17 ar
    32   16   43 1
    33   17   18 ar
    34   17   20 1
    35   18   19 ar
    36   18   44 1
    37   19   45 1
    38   20   21 1
    39   21   22 1
    40   21   23 1
    41   21   24 1
    42   23   46 1
    43   23   47 1
    44   23   48 1
    45   24   25 2
    46   24   26 1
    47   27   28 1
    48   27   29 2
    49   29   30 1
    50   30   31 2
@<TRIPOS>MOLECULE
ZINC35517157
   38    40     0     0     0
SMALL
USER_CHARGES

@<TRIPOS>ATOM
      1 C1         -0.0169    1.3953    0.0097 C.ar      1 <0>        -0.0997
      2 C2          1.1559    2.0940    0.0023 C.ar      1 <0>        -0.0880
      3 C3          2.3775    1.4107   -0.0131 C.ar      1 <0>        -0.1076
      4 C4          2.3963    0.0111   -0.0208 C.ar      1 <0>        -0.0912
      5 C5          1.2233   -0.6874   -0.0134 C.ar      1 <0>        -0.0980
      6 C6          0.0021   -0.0041    0.0020 C.ar      1 <0>        -0.0626
      7 C7         -1.2639   -0.7581    0.0106 C.2       1 <0>         0.1080
      8 C8         -1.3829   -2.1303    0.0099 C.2       1 <0>        -0.2212
      9 C9         -2.7490   -2.4213    0.0206 C.2       1 <0>        -0.1176
     10 C10        -3.4165   -1.2093    0.0274 C.2       1 <0>        -0.0533
     11 O1         -2.4984   -0.2215    0.0262 O.3       1 <0>        -0.1488
     12 C11        -4.8184   -1.0365    0.0389 C.2       1 <0>         0.1061
     13 C12        -5.3508    0.2194    0.0446 C.2       1 <0>        -0.2466
     14 C13        -6.7632    0.6411    0.0625 C.2       1 <0>         0.5425
     15 O2         -7.6720   -0.1691    0.0754 O.2       1 <0>        -0.4586
     16 N1         -6.9943    1.9432    0.0643 N.am      1 <0>        -0.5183
     17 C14        -5.9848    2.8375    0.0504 C.2       1 <0>         0.2809
     18 S1         -6.0782    4.5469    0.0508 S.2       1 <0>        -0.3452
     19 S2         -4.5273    1.8060    0.0404 S.3       1 <0>         0.0757
     20 C15        -8.3777    2.4250    0.0813 C.3       1 <0>         0.1063
     21 C16        -8.8412    2.5939    1.5296 C.3       1 <0>        -0.1926
     22 C17       -10.2643    3.0895    1.5470 C.2       1 <0>         0.5051
     23 O3        -10.8532    3.2891    0.4983 O.co2     1 <0>        -0.6941
     24 O4        -10.8267    3.2909    2.6099 O.co2     1 <0>        -0.6974
     25 C18         3.6428    2.1643   -0.0216 C.2       1 <0>         0.5171
     26 O5          3.6263    3.3876   -0.0153 O.co2     1 <0>        -0.6810
     27 O6          4.7104    1.5670   -0.0350 O.co2     1 <0>        -0.6857
     28 H1         -0.9594    1.9224    0.0261 H         1 <0>         0.1255
     29 H2          1.1413    3.1739    0.0079 H         1 <0>         0.1350
     30 H3          3.3387   -0.5162   -0.0330 H         1 <0>         0.1342
     31 H4          1.2378   -1.7672   -0.0197 H         1 <0>         0.1223
     32 H5         -0.5736   -2.8454    0.0020 H         1 <0>         0.1595
     33 H6         -3.1979   -3.4036    0.0225 H         1 <0>         0.1619
     34 H7         -5.4688   -1.8987    0.0431 H         1 <0>         0.1805
     35 H8         -8.4346    3.3845   -0.4327 H         1 <0>         0.1136
     36 H9         -9.0199    1.7035   -0.4239 H         1 <0>         0.1031
     37 H10        -8.7843    1.6344    2.0435 H         1 <0>         0.0613
     38 H11        -8.1990    3.3153    2.0348 H         1 <0>         0.0689
@<TRIPOS>BOND
     1    1    6 ar
     2    1    2 ar
     3    1   28 1
     4    2    3 ar
     5    2   29 1
     6    3    4 ar
     7    3   25 1
     8    4    5 ar
     9    4   30 1
    10    5    6 ar
    11    5   31 1
    12    6    7 1
    13    7   11 1
    14    7    8 2
    15    8    9 1
    16    8   32 1
    17    9   10 2
    18    9   33 1
    19   10   11 1
    20   10   12 1
    21   12   13 2
    22   12   34 1
    23   13   19 1
    24   13   14 1
    25   14   15 2
    26   14   16 am
    27   16   17 1
    28   16   20 1
    29   17   18 2
    30   17   19 1
    31   20   21 1
    32   20   35 1
    33   20   36 1
    34   21   22 1
    35   21   37 1
    36   21   38 1
    37   22   23 2
    38   22   24 1
    39   25   26 2
    40   25   27 1
@<TRIPOS>MOLECULE
ZINC13351548
   44    46     0     0     0
SMALL
USER_CHARGES

@<TRIPOS>ATOM
      1 C1         -0.0136    1.3773    0.0813 C.3       1 <0>         0.0939
      2 N1          0.1813   -0.0740    0.0377 N.pl3     1 <0>        -0.6334
      3 C2          0.4248   -0.8179    1.2760 C.3       1 <0>         0.1320
      4 C3         -0.9103   -1.2724    1.8690 C.3       1 <0>        -0.0515
      5 C4         -0.6656   -2.0199    3.1133 C.1       1 <0>         0.2101
      6 N2         -0.4767   -2.5967    4.0735 N.1       1 <0>        -0.4373
      7 C5          0.1349   -0.7471   -1.1819 C.ar      1 <0>         0.2032
      8 C6          0.3145   -2.1263   -1.2206 C.ar      1 <0>        -0.1978
      9 C7          0.2694   -2.7949   -2.4234 C.ar      1 <0>        -0.0554
     10 C8          0.0422   -2.0857   -3.6075 C.ar      1 <0>        -0.0974
     11 C9         -0.1383   -0.6992   -3.5643 C.ar      1 <0>        -0.0558
     12 C10        -0.0966   -0.0387   -2.3569 C.ar      1 <0>        -0.1970
     13 C11        -0.0063   -2.7964   -4.8955 C.2       1 <0>        -0.0784
     14 C12        -0.4867   -4.0523   -4.9534 C.2       1 <0>         0.0191
     15 C13        -0.3881   -4.8208   -6.2046 C.ar      1 <0>         0.3669
     16 N3          0.1878   -4.2485   -7.2653 N.ar      1 <0>        -0.6376
     17 C14         0.3047   -4.8885   -8.4139 C.ar      1 <0>         0.4722
     18 O1          0.8908   -4.2965   -9.4799 O.3       1 <0>        -0.6880
     19 C15        -0.1982   -6.2116   -8.5041 C.ar      1 <0>        -0.2213
     20 C16        -0.1102   -6.9533   -9.6882 C.ar      1 <0>        -0.0642
     21 C17        -0.6047   -8.2207   -9.7341 C.ar      1 <0>        -0.1309
     22 C18        -1.2060   -8.7994   -8.6038 C.ar      1 <0>        -0.1103
     23 C19        -1.3072   -8.0875   -7.4177 C.ar      1 <0>        -0.0972
     24 C20        -0.8018   -6.7808   -7.3551 C.ar      1 <0>         0.1680
     25 N4         -0.8687   -6.0532   -6.2328 N.ar      1 <0>        -0.5754
     26 C21        -1.7350  -10.1765   -8.6793 C.2       1 <0>         0.5255
     27 O2         -1.6487  -10.8082   -9.7226 O.co2     1 <0>        -0.6960
     28 O3         -2.2592  -10.6847   -7.6986 O.co2     1 <0>        -0.6924
     29 Cl1        -1.2225   -4.7657   -3.5522 Cl        1 <0>        -0.0655
     30 H1          0.9497    1.8765   -0.0232 H         1 <0>         0.0465
     31 H2         -0.6703    1.6804   -0.7342 H         1 <0>         0.0711
     32 H3         -0.4652    1.6548    1.0337 H         1 <0>         0.0629
     33 H4          1.0423   -1.6900    1.0606 H         1 <0>         0.0868
     34 H5          0.9398   -0.1756    1.9904 H         1 <0>         0.0803
     35 H6         -1.5278   -0.4004    2.0845 H         1 <0>         0.1089
     36 H7         -1.4253   -1.9147    1.1546 H         1 <0>         0.1156
     37 H8          0.4898   -2.6731   -0.3059 H         1 <0>         0.1190
     38 H9          0.4096   -3.8653   -2.4526 H         1 <0>         0.1355
     39 H10        -0.3136   -0.1481   -4.4764 H         1 <0>         0.1251
     40 H11        -0.2399    1.0312   -2.3223 H         1 <0>         0.1198
     41 H12         0.3436   -2.3100   -5.7941 H         1 <0>         0.1578
     42 H13         0.3493   -6.5203  -10.5644 H         1 <0>         0.1167
     43 H14        -0.5343   -8.7880  -10.6504 H         1 <0>         0.1178
     44 H15        -1.7706   -8.5351   -6.5510 H         1 <0>         0.1282
@<TRIPOS>BOND
     1    1    2 1
     2    1   30 1
     3    1   31 1
     4    1   32 1
     5    2    3 1
     6    2    7 1
     7    3    4 1
     8    3   33 1
     9    3   34 1
    10    4    5 1
    11    4   35 1
    12    4   36 1
    13    5    6 3
    14    7   12 ar
    15    7    8 ar
    16    8    9 ar
    17    8   37 1
    18    9   10 ar
    19    9   38 1
    20   10   11 ar
    21   10   13 1
    22   11   12 ar
    23   11   39 1
    24   12   40 1
    25   13   14 2
    26   13   41 1
    27   14   15 1
    28   14   29 1
    29   15   25 ar
    30   15   16 ar
    31   16   17 ar
    32   17   18 1
    33   17   19 ar
    34   19   24 ar
    35   19   20 ar
    36   20   21 ar
    37   20   42 1
    38   21   22 ar
    39   21   43 1
    40   22   23 ar
    41   22   26 1
    42   23   24 ar
    43   23   44 1
    44   24   25 ar
    45   26   27 2
    46   26   28 1
@<TRIPOS>MOLECULE
ZINC55588105
   36    37     0     0     0
SMALL
USER_CHARGES

@<TRIPOS>ATOM
      1 C1          1.7130   -1.1362    1.8141 C.3       1 <0>        -0.1478
      2 C2          1.8224   -0.4077    0.4731 C.3       1 <0>        -0.0362
      3 C3          1.4237   -1.3420   -0.6400 C.2       1 <0>        -0.1550
      4 C4          0.1991   -1.5493   -1.1831 C.2       1 <0>        -0.1760
      5 C5          0.0673   -2.4662   -2.2090 C.2       1 <0>        -0.0561
      6 C6          1.1664   -3.1310   -2.6418 C.2       1 <0>        -0.6440
      7 S1          2.4429   -2.4574   -1.5910 S.3       1 <0>         0.1347
      8 S2          1.3015   -4.3411   -3.9153 S.o2      1 <0>         2.6127
      9 O1          2.4593   -5.1112   -3.6227 O.2       1 <0>        -1.0234
     10 O2          0.0141   -4.9254   -4.0585 O.2       1 <0>        -1.0216
     11 N1          1.6144   -3.5336   -5.3268 N.2       1 <0>        -1.0738
     12 C7          1.8622   -4.2494   -6.5011 C.ar      1 <0>         0.3086
     13 C8          1.7097   -5.6286   -6.5193 C.ar      1 <0>        -0.3055
     14 C9          1.9562   -6.3357   -7.6875 C.ar      1 <0>         0.3181
     15 C10         2.3548   -5.6617   -8.8354 C.ar      1 <0>        -0.3177
     16 C11         2.5059   -4.2884   -8.8148 C.ar      1 <0>        -0.0348
     17 C12         2.2561   -3.5801   -7.6543 C.ar      1 <0>        -0.1604
     18 Cl1         2.4404   -1.8540   -7.6350 Cl        1 <0>        -0.1319
     19 N2          1.8042   -7.7246   -7.7094 N.2       1 <0>        -1.0959
     20 S3          2.0985   -8.5679   -9.1039 S.o2      1 <0>         2.5128
     21 O3          1.1187   -8.1032  -10.0223 O.2       1 <0>        -1.0372
     22 O4          3.4824   -8.3724   -9.3605 O.2       1 <0>        -1.0369
     23 C13         1.7812  -10.3019   -8.6759 C.3       1 <0>        -0.6390
     24 H1          0.6850   -1.4648    1.9663 H         1 <0>         0.0576
     25 H2          2.3748   -2.0023    1.8122 H         1 <0>         0.0591
     26 H3          2.0014   -0.4604    2.6193 H         1 <0>         0.0590
     27 H4          1.1606    0.4584    0.4751 H         1 <0>         0.0816
     28 H5          2.8505   -0.0791    0.3210 H         1 <0>         0.0776
     29 H6         -0.6607   -1.0064   -0.8194 H         1 <0>         0.1288
     30 H7         -0.8971   -2.6504   -2.6589 H         1 <0>         0.1412
     31 H8          1.4002   -6.1505   -5.6259 H         1 <0>         0.0975
     32 H9          2.5471   -6.2119   -9.7446 H         1 <0>         0.0931
     33 H10         2.8162   -3.7670   -9.7083 H         1 <0>         0.0955
     34 H11         0.7473  -10.4120   -8.3487 H         1 <0>         0.1115
     35 H12         1.9545  -10.9294   -9.5501 H         1 <0>         0.0923
     36 H13         2.4512  -10.6061   -7.8717 H         1 <0>         0.1116
@<TRIPOS>BOND
     1    1    2 1
     2    1   24 1
     3    1   25 1
     4    1   26 1
     5    2    3 1
     6    2   27 1
     7    2   28 1
     8    3    7 1
     9    3    4 2
    10    4    5 1
    11    4   29 1
    12    5    6 2
    13    5   30 1
    14    6    7 1
    15    6    8 1
    16    8    9 2
    17    8   10 2
    18    8   11 1
    19   11   12 1
    20   12   17 ar
    21   12   13 ar
    22   13   14 ar
    23   13   31 1
    24   14   15 ar
    25   14   19 1
    26   15   16 ar
    27   15   32 1
    28   16   17 ar
    29   16   33 1
    30   17   18 1
    31   19   20 1
    32   20   21 2
    33   20   22 2
    34   20   23 1
    35   23   34 1
    36   23   35 1
    37   23   36 1
@<TRIPOS>MOLECULE
ZINC19943931
   43    45     0     0     0
SMALL
USER_CHARGES

@<TRIPOS>ATOM
      1 C1         -0.4456    1.5623    0.6859 C.3       1 <0>         0.0268
      2 O1         -0.3169    0.1508    0.5032 O.3       1 <0>        -0.3115
      3 C2         -1.4677   -0.5699    0.4319 C.ar      1 <0>         0.1231
      4 C3         -2.6939    0.0709    0.5302 C.ar      1 <0>        -0.1846
      5 C4         -3.8661   -0.6591    0.4586 C.ar      1 <0>        -0.1461
      6 C5         -3.8189   -2.0325    0.2884 C.ar      1 <0>         0.0774
      7 C6         -2.5890   -2.6790    0.1889 C.ar      1 <0>         0.1735
      8 C7         -1.4146   -1.9440    0.2553 C.ar      1 <0>        -0.1740
      9 N1         -2.5386   -4.0670    0.0169 N.pl3     1 <0>        -1.0448
     10 S1         -1.3256   -4.9454    0.7237 S.o2      1 <0>         2.6952
     11 O2         -1.6213   -6.3140    0.4817 O.2       1 <0>        -0.9458
     12 O3         -0.1020   -4.3471    0.3186 O.2       1 <0>        -0.9505
     13 C8         -1.4529   -4.7028    2.4642 C.ar      1 <0>        -0.7288
     14 C9         -0.7731   -3.6538    3.0671 C.ar      1 <0>         0.0309
     15 C10        -0.8596   -3.4479    4.4264 C.ar      1 <0>        -0.1987
     16 C11        -1.6360   -4.2972    5.2108 C.ar      1 <0>         0.2506
     17 C12        -2.3236   -5.3582    4.5980 C.ar      1 <0>        -0.2172
     18 C13        -2.2310   -5.5516    3.2197 C.ar      1 <0>         0.0811
     19 C14        -3.1424   -6.2504    5.4401 C.2       1 <0>         0.4154
     20 O4         -3.7591   -7.1859    4.9617 O.2       1 <0>        -0.4408
     21 C15        -3.1822   -5.9625    6.8839 C.2       1 <0>        -0.2870
     22 C16        -2.4617   -4.8876    7.3696 C.2       1 <0>         0.1426
     23 N2         -1.7298   -4.1014    6.5720 N.pl3     1 <0>        -0.6031
     24 H1         -1.2444   -3.3612    6.9688 H         1 <0>         0.4145
     25 C17        -3.9731   -6.8016    7.7905 C.2       1 <0>         0.5360
     26 O5         -3.9987   -6.5527    8.9887 O.co2     1 <0>        -0.7015
     27 O6         -4.6075   -7.7507    7.3489 O.co2     1 <0>        -0.6613
     28 O7         -4.9731   -2.7501    0.2189 O.3       1 <0>        -0.3119
     29 C18        -6.1975   -2.0217    0.3290 C.3       1 <0>         0.0278
     30 H2          0.5450    2.0153    0.7259 H         1 <0>         0.1005
     31 H3         -1.0060    1.9868   -0.1471 H         1 <0>         0.0547
     32 H4         -0.9740    1.7612    1.6182 H         1 <0>         0.0555
     33 H5         -2.7332    1.1419    0.6633 H         1 <0>         0.1331
     34 H6         -4.8194   -0.1576    0.5358 H         1 <0>         0.1363
     35 H7         -0.4598   -2.4421    0.1740 H         1 <0>         0.1771
     36 H8         -3.2141   -4.5145   -0.5163 H         1 <0>         0.4323
     37 H9         -0.1694   -2.9918    2.4640 H         1 <0>         0.1439
     38 H10        -0.3252   -2.6283    4.8836 H         1 <0>         0.1391
     39 H11        -2.7629   -6.3649    2.7484 H         1 <0>         0.1535
     40 H12        -2.4905   -4.6753    8.4282 H         1 <0>         0.1744
     41 H13        -6.2587   -1.2900   -0.4766 H         1 <0>         0.0540
     42 H14        -7.0384   -2.7116    0.2578 H         1 <0>         0.1022
     43 H15        -6.2295   -1.5079    1.2897 H         1 <0>         0.0560
@<TRIPOS>BOND
     1    1    2 1
     2    1   30 1
     3    1   31 1
     4    1   32 1
     5    2    3 1
     6    3    8 ar
     7    3    4 ar
     8    4    5 ar
     9    4   33 1
    10    5    6 ar
    11    5   34 1
    12    6    7 ar
    13    6   28 1
    14    7    8 ar
    15    7    9 1
    16    8   35 1
    17    9   10 1
    18    9   36 1
    19   10   11 2
    20   10   12 2
    21   10   13 1
    22   13   18 ar
    23   13   14 ar
    24   14   15 ar
    25   14   37 1
    26   15   16 ar
    27   15   38 1
    28   16   23 1
    29   16   17 ar
    30   17   18 ar
    31   17   19 1
    32   18   39 1
    33   19   20 2
    34   19   21 1
    35   21   22 2
    36   21   25 1
    37   22   23 1
    38   22   40 1
    39   23   24 1
    40   25   26 2
    41   25   27 1
    42   28   29 1
    43   29   41 1
    44   29   42 1
    45   29   43 1
@<TRIPOS>MOLECULE
ZINC22471474
   46    47     0     0     0
SMALL
USER_CHARGES
N,N-bis(2-cyanoethyl)-2-[[5-[(1R)-1-(4-fluorophenoxy)ethyl]-1,3,4-oxadiazol-2-yl]sulfanyl]acetamide
@<TRIPOS>ATOM
      1 C1         -0.6765    1.3614   -1.3344 C.3       1 <0>        -0.1774
      2 C2         -0.0115    1.0827    0.0150 C.3       1 <0>         0.1876
      3 H1          0.0640    0.0039    0.2160 H         1 <0>         0.1097
      4 C3         -0.7883    1.7687    1.1091 C.2       1 <0>         0.1614
      5 N1         -0.7808    3.0421    1.3743 N.2       1 <0>        -0.2374
      6 N2         -1.5608    3.2794    2.3696 N.2       1 <0>        -0.2899
      7 C4         -2.0905    2.1534    2.7835 C.2       1 <0>         0.1246
      8 O1         -1.6123    1.1734    1.9939 O.3       1 <0>        -0.1969
      9 S1         -3.2176    1.9592    4.1239 S.3       1 <0>         0.1608
     10 C5         -3.3650    3.6809    4.6626 C.3       1 <0>        -0.1752
     11 C6         -4.3084    3.7614    5.8350 C.2       1 <0>         0.5418
     12 O2         -4.8298    2.7539    6.2641 O.2       1 <0>        -0.5073
     13 N3         -4.5728    4.9529    6.4067 N.am      1 <0>        -0.6024
     14 C7         -5.4899    5.0312    7.5464 C.3       1 <0>         0.1156
     15 C8         -4.7012    4.8703    8.8476 C.3       1 <0>        -0.0453
     16 C9         -5.6227    4.9489    9.9928 C.1       1 <0>         0.2035
     17 N4         -6.3339    5.0096   10.8766 N.1       1 <0>        -0.4224
     18 C10        -3.9430    6.1699    5.8883 C.3       1 <0>         0.1019
     19 C11        -4.8317    6.7816    4.8035 C.3       1 <0>        -0.0487
     20 C12        -4.1989    8.0044    4.2827 C.1       1 <0>         0.1987
     21 N5         -3.7106    8.9480    3.8807 N.1       1 <0>        -0.4151
     22 O3          1.3279    1.5804   -0.0021 O.3       1 <0>        -0.2949
     23 C13         2.2820    0.7669   -0.5276 C.ar      1 <0>         0.1194
     24 C14         1.9216   -0.4386   -1.1113 C.ar      1 <0>        -0.1837
     25 C15         2.8916   -1.2615   -1.6504 C.ar      1 <0>        -0.1103
     26 C16         4.2240   -0.8889   -1.5976 C.ar      1 <0>         0.0658
     27 C17         4.5857    0.3113   -1.0097 C.ar      1 <0>        -0.1108
     28 C18         3.6172    1.1390   -0.4753 C.ar      1 <0>        -0.1146
     29 F1          5.1720   -1.6970   -2.1206 F         1 <0>        -0.1379
     30 H2         -0.1095    0.8607   -2.1330 H         1 <0>         0.0887
     31 H3         -0.6906    2.4457   -1.5192 H         1 <0>         0.0868
     32 H4         -1.7075    0.9782   -1.3211 H         1 <0>         0.0845
     33 H5         -2.3757    4.0575    4.9615 H         1 <0>         0.1390
     34 H6         -3.7553    4.2918    3.8353 H         1 <0>         0.1366
     35 H7         -5.9965    6.0076    7.5430 H         1 <0>         0.0985
     36 H8         -6.2390    4.2293    7.4701 H         1 <0>         0.1036
     37 H9         -4.1946    3.8939    8.8509 H         1 <0>         0.1163
     38 H10        -3.9522    5.6723    8.9239 H         1 <0>         0.1143
     39 H11        -3.8134    6.8930    6.7071 H         1 <0>         0.1048
     40 H12        -2.9608    5.9207    5.4603 H         1 <0>         0.0996
     41 H13        -4.9612    6.0585    3.9848 H         1 <0>         0.1130
     42 H14        -5.8139    7.0307    5.2315 H         1 <0>         0.1197
     43 H15         0.8828   -0.7318   -1.1483 H         1 <0>         0.1415
     44 H16         2.6108   -2.1979   -2.1096 H         1 <0>         0.1417
     45 H17         5.6254    0.6008   -0.9691 H         1 <0>         0.1459
     46 H18         3.8995    2.0755   -0.0174 H         1 <0>         0.1448
@<TRIPOS>BOND
     1    1    2 1
     2    1   30 1
     3    1   31 1
     4    1   32 1
     5    2    3 1
     6    2    4 1
     7    2   22 1
     8    4    8 1
     9    4    5 2
    10    5    6 1
    11    6    7 2
    12    7    8 1
    13    7    9 1
    14    9   10 1
    15   10   11 1
    16   10   33 1
    17   10   34 1
    18   11   12 2
    19   11   13 am
    20   13   14 1
    21   13   18 1
    22   14   15 1
    23   14   35 1
    24   14   36 1
    25   15   16 1
    26   15   37 1
    27   15   38 1
    28   16   17 3
    29   18   19 1
    30   18   39 1
    31   18   40 1
    32   19   20 1
    33   19   41 1
    34   19   42 1
    35   20   21 3
    36   22   23 1
    37   23   28 ar
    38   23   24 ar
    39   24   25 ar
    40   24   43 1
    41   25   26 ar
    42   25   44 1
    43   26   27 ar
    44   26   29 1
    45   27   28 ar
    46   27   45 1
    47   28   46 1
@<TRIPOS>MOLECULE
ZINC35406429
   58    60     0     0     0
SMALL
USER_CHARGES

@<TRIPOS>ATOM
      1 C1         -1.6892    1.7501   -2.1126 C.3       1 <0>        -0.0823
      2 C2         -2.5120    1.9782   -0.8709 C.2       1 <0>         0.0611
      3 C3         -2.8577    1.0265    0.0433 C.2       1 <0>        -0.2403
      4 C4         -3.6520    1.7273    1.0629 C.2       1 <0>        -0.1850
      5 C5         -3.7066    3.0094    0.6711 C.2       1 <0>        -0.0298
      6 O1         -3.0222    3.1484   -0.4751 O.3       1 <0>        -0.1731
      7 C6         -2.5084   -0.4050    0.0147 C.2       1 <0>         0.5980
      8 O2         -1.3462   -0.7451   -0.0979 O.2       1 <0>        -0.5208
      9 N1         -3.4768   -1.3371    0.1132 N.am      1 <0>        -0.6043
     10 C7         -4.8849   -0.9325    0.1203 C.3       1 <0>         0.1190
     11 C8         -5.4142   -0.9029   -1.3149 C.3       1 <0>        -0.1593
     12 C9         -6.8626   -0.4867   -1.3076 C.2       1 <0>         0.5186
     13 O3         -7.4169   -0.2383   -0.2579 O.2       1 <0>        -0.5355
     14 N2         -7.5420   -0.3907   -2.4676 N.am      1 <0>        -0.7310
     15 C10        -8.9500    0.0139   -2.4605 C.3       1 <0>         0.1199
     16 C11        -9.4794    0.0435   -3.8957 C.3       1 <0>        -0.1285
     17 C12       -10.9499    0.4660   -3.8883 C.3       1 <0>         0.0579
     18 N3        -11.4581    0.4944   -5.2663 N.3       1 <0>        -0.5373
     19 C13       -10.8012    1.5518   -6.0485 C.3       1 <0>         0.0134
     20 C14       -11.3155    1.5072   -7.4898 C.3       1 <0>         0.0625
     21 O4        -12.7394    1.6411   -7.4869 O.3       1 <0>        -0.3851
     22 C15       -13.4115    0.6273   -6.7348 C.3       1 <0>         0.0627
     23 C16       -12.9185    0.6629   -5.2858 C.3       1 <0>         0.0168
     24 C17        -3.1216   -2.7548    0.2132 C.3       1 <0>         0.1921
     25 C18        -3.0785   -3.1607    1.6639 C.2       1 <0>        -0.0368
     26 C19        -4.1115   -3.6456    2.3761 C.2       1 <0>        -0.1932
     27 C20        -3.6291   -3.8909    3.6823 C.2       1 <0>        -0.2174
     28 C21        -2.3302   -3.5413    3.6901 C.2       1 <0>        -0.0330
     29 O5         -2.0007   -3.1052    2.4633 O.3       1 <0>        -0.1665
     30 H1         -1.5701    2.6922   -2.6478 H         1 <0>         0.0829
     31 H2         -0.7087    1.3647   -1.8330 H         1 <0>         0.0985
     32 H3         -2.1935    1.0284   -2.7552 H         1 <0>         0.0877
     33 H4         -4.1000    1.2978    1.9468 H         1 <0>         0.1571
     34 H5         -4.2165    3.8035    1.1962 H         1 <0>         0.2095
     35 H6         -5.4647   -1.6451    0.7068 H         1 <0>         0.0901
     36 H7         -4.9755    0.0601    0.5615 H         1 <0>         0.1003
     37 H8         -4.8344   -0.1903   -1.9014 H         1 <0>         0.0960
     38 H9         -5.3236   -1.8955   -1.7561 H         1 <0>         0.0993
     39 H10        -7.0987   -0.5894   -3.3072 H         1 <0>         0.4020
     40 H11        -9.5299   -0.6988   -1.8740 H         1 <0>         0.0704
     41 H12        -9.0406    1.0065   -2.0193 H         1 <0>         0.0677
     42 H13        -8.8995    0.7561   -4.4822 H         1 <0>         0.0702
     43 H14        -9.3888   -0.9491   -4.3369 H         1 <0>         0.0803
     44 H15       -11.5297   -0.2467   -3.3018 H         1 <0>         0.0812
     45 H16       -11.0405    1.4586   -3.4471 H         1 <0>         0.0401
     46 H17       -11.0293    2.5235   -5.6105 H         1 <0>         0.0442
     47 H18        -9.7229    1.3928   -6.0417 H         1 <0>         0.0882
     48 H19       -10.8742    2.3251   -8.0592 H         1 <0>         0.0989
     49 H20       -11.0404    0.5558   -7.9451 H         1 <0>         0.0604
     50 H21       -14.4860    0.8088   -6.7582 H         1 <0>         0.0997
     51 H22       -13.1973   -0.3497   -7.1682 H         1 <0>         0.0608
     52 H23       -13.3856   -0.1448   -4.7224 H         1 <0>         0.0882
     53 H24       -13.1804    1.6205   -4.8357 H         1 <0>         0.0447
     54 H25        -3.8670   -3.3539   -0.3097 H         1 <0>         0.1110
     55 H26        -2.1430   -2.9169   -0.2386 H         1 <0>         0.1081
     56 H27        -5.1166   -3.8144    2.0189 H         1 <0>         0.1479
     57 H28        -4.1951   -4.2833    4.5142 H         1 <0>         0.1491
     58 H29        -1.6643   -3.6045    4.5380 H         1 <0>         0.2027
@<TRIPOS>BOND
     1    1    2 1
     2    1   30 1
     3    1   31 1
     4    1   32 1
     5    2    6 1
     6    2    3 2
     7    3    4 1
     8    3    7 1
     9    4    5 2
    10    4   33 1
    11    5    6 1
    12    5   34 1
    13    7    8 2
    14    7    9 am
    15    9   10 1
    16    9   24 1
    17   10   11 1
    18   10   35 1
    19   10   36 1
    20   11   12 1
    21   11   37 1
    22   11   38 1
    23   12   13 2
    24   12   14 am
    25   14   15 1
    26   14   39 1
    27   15   16 1
    28   15   40 1
    29   15   41 1
    30   16   17 1
    31   16   42 1
    32   16   43 1
    33   17   18 1
    34   17   44 1
    35   17   45 1
    36   18   23 1
    37   18   19 1
    38   19   20 1
    39   19   46 1
    40   19   47 1
    41   20   21 1
    42   20   48 1
    43   20   49 1
    44   21   22 1
    45   22   23 1
    46   22   50 1
    47   22   51 1
    48   23   52 1
    49   23   53 1
    50   24   25 1
    51   24   54 1
    52   24   55 1
    53   25   29 1
    54   25   26 2
    55   26   27 1
    56   26   56 1
    57   27   28 2
    58   27   57 1
    59   28   29 1
    60   28   58 1
@<TRIPOS>MOLECULE
ZINC58473654
   46    46     0     0     0
SMALL
USER_CHARGES

@<TRIPOS>ATOM
      1 C1         -0.0187    1.5258    0.0104 C.3       1 <0>        -0.1528
      2 C2          0.0021   -0.0041    0.0020 C.3       1 <0>         0.0484
      3 O1          0.6709   -0.4649   -1.1737 O.3       1 <0>        -0.2969
      4 C3          0.7768   -1.8109   -1.3363 C.ar      1 <0>         0.1628
      5 C4          0.2435   -2.6690   -0.3879 C.ar      1 <0>        -0.1950
      6 C5          0.3516   -4.0370   -0.5549 C.ar      1 <0>        -0.0150
      7 C6          0.9916   -4.5523   -1.6668 C.ar      1 <0>        -0.6800
      8 C7          1.5263   -3.7019   -2.6164 C.ar      1 <0>        -0.0785
      9 C8          1.4160   -2.3297   -2.4582 C.ar      1 <0>         0.0872
     10 O2          1.9361   -1.4917   -3.3945 O.3       1 <0>        -0.3013
     11 C9          2.5780   -2.0947   -4.5199 C.3       1 <0>         0.0474
     12 C10         3.0962   -1.0022   -5.4574 C.3       1 <0>        -0.1516
     13 S1          1.1265   -6.2969   -1.8735 S.o2      1 <0>         2.6911
     14 O3          2.2462   -6.5202   -2.7195 O.2       1 <0>        -0.9492
     15 O4          1.0257   -6.8686   -0.5765 O.2       1 <0>        -0.9484
     16 N1         -0.2096   -6.7950   -2.7155 N.pl3     1 <0>        -0.9985
     17 C11        -0.1789   -6.8379   -4.1795 C.3       1 <0>         0.0885
     18 C12        -1.4224   -7.1928   -1.9963 C.3       1 <0>         0.1239
     19 C13        -2.3757   -5.9996   -1.9050 C.3       1 <0>        -0.1420
     20 C14        -3.6232   -6.4088   -1.1652 C.2       1 <0>         0.4643
     21 O5         -3.7380   -7.5388   -0.7532 O.2       1 <0>        -0.5000
     22 O6         -4.6068   -5.5179   -0.9639 O.3       1 <0>        -0.3543
     23 C15        -5.7606   -5.9744   -0.2551 C.3       1 <0>         0.0322
     24 H1          1.0039    1.9031    0.0027 H         1 <0>         0.0683
     25 H2         -0.5459    1.8868   -0.8726 H         1 <0>         0.0682
     26 H3         -0.5289    1.8773    0.9072 H         1 <0>         0.0818
     27 H4          0.5293   -0.3651    0.8851 H         1 <0>         0.0668
     28 H5         -1.0205   -0.3814    0.0098 H         1 <0>         0.0669
     29 H6         -0.2563   -2.2690    0.4819 H         1 <0>         0.1466
     30 H7         -0.0645   -4.7047    0.1850 H         1 <0>         0.1450
     31 H8          2.0261   -4.1070   -3.4839 H         1 <0>         0.1506
     32 H9          3.4131   -2.7058   -4.1775 H         1 <0>         0.0663
     33 H10         1.8634   -2.7219   -5.0528 H         1 <0>         0.0638
     34 H11         2.2611   -0.3911   -5.7998 H         1 <0>         0.0673
     35 H12         3.8108   -0.3750   -4.9244 H         1 <0>         0.0678
     36 H13         3.5858   -1.4622   -6.3157 H         1 <0>         0.0814
     37 H14         0.1677   -7.8180   -4.5072 H         1 <0>         0.0674
     38 H15        -1.1808   -6.6578   -4.5694 H         1 <0>         0.0772
     39 H16         0.4991   -6.0697   -4.5514 H         1 <0>         0.0732
     40 H17        -1.9106   -8.0079   -2.5304 H         1 <0>         0.1007
     41 H18        -1.1573   -7.5237   -0.9921 H         1 <0>         0.1079
     42 H19        -1.8874   -5.1845   -1.3709 H         1 <0>         0.1065
     43 H20        -2.6408   -5.6687   -2.9091 H         1 <0>         0.1154
     44 H21        -5.4661   -6.3147    0.7376 H         1 <0>         0.0629
     45 H22        -6.4763   -5.1576   -0.1616 H         1 <0>         0.1034
     46 H23        -6.2194   -6.7990   -0.8006 H         1 <0>         0.0625
@<TRIPOS>BOND
     1    1    2 1
     2    1   24 1
     3    1   25 1
     4    1   26 1
     5    2    3 1
     6    2   27 1
     7    2   28 1
     8    3    4 1
     9    4    9 ar
    10    4    5 ar
    11    5    6 ar
    12    5   29 1
    13    6    7 ar
    14    6   30 1
    15    7    8 ar
    16    7   13 1
    17    8    9 ar
    18    8   31 1
    19    9   10 1
    20   10   11 1
    21   11   12 1
    22   11   32 1
    23   11   33 1
    24   12   34 1
    25   12   35 1
    26   12   36 1
    27   13   14 2
    28   13   15 2
    29   13   16 1
    30   16   17 1
    31   16   18 1
    32   17   37 1
    33   17   38 1
    34   17   39 1
    35   18   19 1
    36   18   40 1
    37   18   41 1
    38   19   20 1
    39   19   42 1
    40   19   43 1
    41   20   21 2
    42   20   22 1
    43   22   23 1
    44   23   44 1
    45   23   45 1
    46   23   46 1
@<TRIPOS>MOLECULE
ZINC61785529
   53    53     0     0     0
SMALL
USER_CHARGES

@<TRIPOS>ATOM
      1 C1         -0.0187    1.5258    0.0104 C.3       1 <0>        -0.1510
      2 C2          0.0021   -0.0041    0.0020 C.3       1 <0>        -0.1361
      3 C3         -1.4333   -0.5336    0.0129 C.3       1 <0>         0.1187
      4 N1         -1.4134   -1.9985    0.0048 N.am      1 <0>        -0.7357
      5 C4         -2.5713   -2.6882    0.0122 C.2       1 <0>         0.5130
      6 O1         -3.6297   -2.0961    0.0255 O.2       1 <0>        -0.5206
      7 C5         -2.5509   -4.1950    0.0039 C.3       1 <0>         0.0361
      8 N2         -3.9291   -4.7035    0.0143 N.3       1 <0>        -0.5239
      9 C6         -4.6027   -4.3731    1.2779 C.3       1 <0>         0.0544
     10 C7         -6.0562   -4.8489    1.2176 C.3       1 <0>         0.0608
     11 N3         -6.0850   -6.2974    0.9718 N.3       1 <0>        -0.5243
     12 C8         -5.4113   -6.6278   -0.2918 C.3       1 <0>         0.0547
     13 C9         -3.9578   -6.1521   -0.2314 C.3       1 <0>         0.0608
     14 C10        -7.4631   -6.8059    0.9822 C.3       1 <0>         0.0375
     15 C11        -7.4427   -8.3127    0.9739 C.2       1 <0>         0.5170
     16 O2         -6.3843   -8.9048    0.9607 O.2       1 <0>        -0.5165
     17 N4         -8.6006   -9.0024    0.9813 N.am      1 <0>        -0.6090
     18 C12        -8.5807  -10.4673    0.9732 C.3       1 <0>         0.1431
     19 C13        -8.5603  -10.9772    2.3912 C.2       1 <0>        -0.1687
     20 C14        -9.4744  -11.8237    2.7960 C.2       1 <0>        -0.1803
     21 C15        -9.8791   -8.2873    0.9973 C.3       1 <0>         0.1350
     22 C16       -10.3310   -8.0344   -0.4179 C.2       1 <0>        -0.1829
     23 C17       -11.5144   -8.4373   -0.8094 C.2       1 <0>        -0.1682
     24 H1          1.0039    1.9031    0.0027 H         1 <0>         0.0608
     25 H2         -0.5459    1.8868   -0.8726 H         1 <0>         0.0583
     26 H3         -0.5289    1.8773    0.9072 H         1 <0>         0.0581
     27 H4          0.5123   -0.3556   -0.8948 H         1 <0>         0.0689
     28 H5          0.5293   -0.3651    0.8851 H         1 <0>         0.0685
     29 H6         -1.9435   -0.1821    0.9097 H         1 <0>         0.0669
     30 H7         -1.9605   -0.1726   -0.8702 H         1 <0>         0.0676
     31 H8         -0.5669   -2.4720   -0.0058 H         1 <0>         0.4002
     32 H9         -2.0407   -4.5465   -0.8929 H         1 <0>         0.1050
     33 H10        -2.0237   -4.5561    0.8869 H         1 <0>         0.0655
     34 H11        -4.0917   -4.8692    2.1030 H         1 <0>         0.0388
     35 H12        -4.5793   -3.2942    1.4312 H         1 <0>         0.0985
     36 H13        -6.5498   -4.6308    2.1646 H         1 <0>         0.0803
     37 H14        -6.5746   -4.3326    0.4096 H         1 <0>         0.0468
     38 H15        -5.4347   -7.7067   -0.4451 H         1 <0>         0.0983
     39 H16        -5.9223   -6.1317   -1.1169 H         1 <0>         0.0384
     40 H17        -3.4642   -6.3701   -1.1785 H         1 <0>         0.0805
     41 H18        -3.4394   -6.6684    0.5765 H         1 <0>         0.0470
     42 H19        -7.9733   -6.4544    1.8790 H         1 <0>         0.1040
     43 H20        -7.9903   -6.4448    0.0992 H         1 <0>         0.0656
     44 H21        -9.4705  -10.8399    0.4659 H         1 <0>         0.0811
     45 H22        -7.6908  -10.8157    0.4490 H         1 <0>         0.0927
     46 H23        -7.7921  -10.6447    3.0736 H         1 <0>         0.1104
     47 H24       -10.2426  -12.1562    2.1136 H         1 <0>         0.0974
     48 H25        -9.4598  -12.1892    3.8122 H         1 <0>         0.1001
     49 H26       -10.6257   -8.8894    1.5151 H         1 <0>         0.0867
     50 H27        -9.7568   -7.3360    1.5151 H         1 <0>         0.0883
     51 H28        -9.6792   -7.5211   -1.1093 H         1 <0>         0.1099
     52 H29       -11.8383   -8.2561   -1.8236 H         1 <0>         0.1016
     53 H30       -12.1662   -8.9506   -0.1180 H         1 <0>         0.0997
@<TRIPOS>BOND
     1    1    2 1
     2    1   24 1
     3    1   25 1
     4    1   26 1
     5    2    3 1
     6    2   27 1
     7    2   28 1
     8    3    4 1
     9    3   29 1
    10    3   30 1
    11    4    5 am
    12    4   31 1
    13    5    6 2
    14    5    7 1
    15    7    8 1
    16    7   32 1
    17    7   33 1
    18    8   13 1
    19    8    9 1
    20    9   10 1
    21    9   34 1
    22    9   35 1
    23   10   11 1
    24   10   36 1
    25   10   37 1
    26   11   12 1
    27   11   14 1
    28   12   13 1
    29   12   38 1
    30   12   39 1
    31   13   40 1
    32   13   41 1
    33   14   15 1
    34   14   42 1
    35   14   43 1
    36   15   16 2
    37   15   17 am
    38   17   18 1
    39   17   21 1
    40   18   19 1
    41   18   44 1
    42   18   45 1
    43   19   20 2
    44   19   46 1
    45   20   47 1
    46   20   48 1
    47   21   22 1
    48   21   49 1
    49   21   50 1
    50   22   23 2
    51   22   51 1
    52   23   52 1
    53   23   53 1
@<TRIPOS>MOLECULE
ZINC66331130
   50    50     0     0     0
SMALL
USER_CHARGES

@<TRIPOS>ATOM
      1 C1         -2.6771   -0.1215    0.3237 C.3       1 <0>        -0.1532
      2 C2         -1.9907   -1.4750    0.1289 C.3       1 <0>        -0.1095
      3 C3         -1.0714   -1.4096   -1.0924 C.3       1 <0>        -0.1357
      4 C4         -0.3954   -2.7427   -1.2842 C.2       1 <0>         0.5291
      5 O1         -0.6260   -3.6552   -0.5193 O.2       1 <0>        -0.5167
      6 N1          0.4656   -2.9209   -2.3057 N.am      1 <0>        -0.6062
      7 C5          0.7796   -1.8328   -3.2572 C.3       1 <0>         0.1585
      8 S1          2.4159   -2.3883   -3.9101 S.3       1 <0>        -0.2507
      9 C6          2.1033   -4.2018   -3.7367 C.3       1 <0>        -0.0653
     10 C7          1.1383   -4.1900   -2.5257 C.3       1 <0>         0.1114
     11 H1          0.3823   -4.9596   -2.6821 H         1 <0>         0.1074
     12 C8          1.9179   -4.5396   -1.2843 C.2       1 <0>         0.5160
     13 O2          2.3820   -3.6589   -0.5916 O.2       1 <0>        -0.5102
     14 N2          2.0993   -5.8310   -0.9439 N.am      1 <0>        -0.6001
     15 C9          2.7567   -6.1698    0.3207 C.3       1 <0>         0.1238
     16 C10         1.7051   -6.2925    1.4252 C.3       1 <0>        -0.1324
     17 C11         2.3916   -6.6463    2.7460 C.3       1 <0>         0.0659
     18 O3          1.4094   -6.7609    3.7776 O.3       1 <0>        -0.3915
     19 C12         1.9485   -7.0907    5.0593 C.3       1 <0>         0.0315
     20 C13         1.6392   -6.8960   -1.8386 C.3       1 <0>         0.1032
     21 C14         2.8019   -7.3617   -2.7173 C.3       1 <0>         0.0386
     22 O4          3.7938   -7.9887   -1.9019 O.3       1 <0>        -0.3848
     23 C15         4.9291   -8.4627   -2.6288 C.3       1 <0>         0.0304
     24 H2         -1.9224    0.6498    0.4778 H         1 <0>         0.0554
     25 H3         -3.2658    0.1180   -0.5618 H         1 <0>         0.0550
     26 H4         -3.3320   -0.1681    1.1938 H         1 <0>         0.0598
     27 H5         -1.4019   -1.7145    1.0144 H         1 <0>         0.0707
     28 H6         -2.7453   -2.2462   -0.0252 H         1 <0>         0.0699
     29 H7         -1.6602   -1.1700   -1.9779 H         1 <0>         0.0960
     30 H8         -0.3168   -0.6383   -0.9383 H         1 <0>         0.0970
     31 H9          0.0367   -1.7818   -4.0533 H         1 <0>         0.1053
     32 H10         0.8671   -0.8756   -2.7432 H         1 <0>         0.1204
     33 H11         1.6232   -4.6080   -4.6270 H         1 <0>         0.1177
     34 H12         3.0211   -4.7415   -3.5033 H         1 <0>         0.1242
     35 H13         3.2836   -7.1179    0.2137 H         1 <0>         0.0923
     36 H14         3.4680   -5.3862    0.5817 H         1 <0>         0.0825
     37 H15         1.1782   -5.3444    1.5322 H         1 <0>         0.0760
     38 H16         0.9938   -7.0761    1.1642 H         1 <0>         0.0703
     39 H17         2.9186   -7.5945    2.6390 H         1 <0>         0.0500
     40 H18         3.1030   -5.8627    3.0070 H         1 <0>         0.0497
     41 H19         2.4662   -8.0481    5.0003 H         1 <0>         0.0412
     42 H20         2.6506   -6.3164    5.3683 H         1 <0>         0.0412
     43 H21         1.1398   -7.1592    5.7869 H         1 <0>         0.0862
     44 H22         1.2725   -7.7346   -1.2467 H         1 <0>         0.0947
     45 H23         0.8352   -6.5179   -2.4701 H         1 <0>         0.0963
     46 H24         2.4359   -8.0741   -3.4566 H         1 <0>         0.0655
     47 H25         3.2396   -6.5028   -3.2260 H         1 <0>         0.0510
     48 H26         4.6073   -9.1980   -3.3663 H         1 <0>         0.0431
     49 H27         5.4110   -7.6266   -3.1357 H         1 <0>         0.0412
     50 H28         5.6352   -8.9251   -1.9390 H         1 <0>         0.0880
@<TRIPOS>BOND
     1    1    2 1
     2    1   24 1
     3    1   25 1
     4    1   26 1
     5    2    3 1
     6    2   27 1
     7    2   28 1
     8    3    4 1
     9    3   29 1
    10    3   30 1
    11    4    5 2
    12    4    6 am
    13    6   10 1
    14    6    7 1
    15    7    8 1
    16    7   31 1
    17    7   32 1
    18    8    9 1
    19    9   10 1
    20    9   33 1
    21    9   34 1
    22   10   11 1
    23   10   12 1
    24   12   13 2
    25   12   14 am
    26   14   15 1
    27   14   20 1
    28   15   16 1
    29   15   35 1
    30   15   36 1
    31   16   17 1
    32   16   37 1
    33   16   38 1
    34   17   18 1
    35   17   39 1
    36   17   40 1
    37   18   19 1
    38   19   41 1
    39   19   42 1
    40   19   43 1
    41   20   21 1
    42   20   44 1
    43   20   45 1
    44   21   22 1
    45   21   46 1
    46   21   47 1
    47   22   23 1
    48   23   48 1
    49   23   49 1
    50   23   50 1
@<TRIPOS>MOLECULE
ZINC13274794
   38    39     0     0     0
SMALL
USER_CHARGES
2-[[2-[(4R)-4-(2-carboxyethyl)-2,5-dioxo-imidazolidin-1-yl]acetyl]amino]-5-chloro-benzoic acid
@<TRIPOS>ATOM
      1 C1         -0.9568    1.6033    0.6623 C.ar      1 <0>        -0.0872
      2 C2          0.3074    1.0513    0.6080 C.ar      1 <0>        -0.1392
      3 C3          1.3414    1.7398   -0.0113 C.ar      1 <0>         0.1901
      4 C4          1.0964    3.0009   -0.5764 C.ar      1 <0>        -0.1424
      5 C5         -0.1867    3.5497   -0.5094 C.ar      1 <0>        -0.0461
      6 C6         -1.2019    2.8510    0.1099 C.ar      1 <0>        -0.0715
      7 Cl1        -2.7956    3.5344    0.1924 Cl        1 <0>        -0.0937
      8 C7          2.1860    3.7415   -1.2371 C.2       1 <0>         0.5017
      9 O1          3.2752    3.2219   -1.3786 O.co2     1 <0>        -0.6301
     10 N1          2.6162    1.1815   -0.0719 N.am      1 <0>        -0.6410
     11 C8          2.7693   -0.1564   -0.0158 C.2       1 <0>         0.4945
     12 O2          1.7951   -0.8787   -0.0147 O.2       1 <0>        -0.5140
     13 C9          4.1511   -0.7547    0.0455 C.3       1 <0>         0.1042
     14 N2          4.0489   -2.2152    0.0993 N.am      1 <0>        -0.5618
     15 C10         3.9707   -2.9270    1.2410 C.2       1 <0>         0.5331
     16 O3          3.9716   -2.4961    2.3742 O.2       1 <0>        -0.4670
     17 C11         3.8794   -4.3785    0.8134 C.3       1 <0>         0.0958
     18 H1          4.7266   -4.9453    1.1995 H         1 <0>         0.1260
     19 N3          3.9287   -4.3099   -0.6573 N.am      1 <0>        -0.7171
     20 C12         4.0274   -3.0073   -0.9786 C.2       1 <0>         0.7082
     21 O4          4.0901   -2.5961   -2.1206 O.2       1 <0>        -0.5460
     22 C13         2.5611   -4.9994    1.2795 C.3       1 <0>        -0.0985
     23 C14         2.5079   -6.4666    0.8488 C.3       1 <0>        -0.1534
     24 C15         1.2094   -7.0782    1.3079 C.2       1 <0>         0.4602
     25 O5          0.4086   -6.4092    1.9171 O.co2     1 <0>        -0.6349
     26 H2         -1.7589    1.0615    1.1414 H         1 <0>         0.1301
     27 H3          0.4911    0.0804    1.0440 H         1 <0>         0.1515
     28 H4         -0.3832    4.5197   -0.9415 H         1 <0>         0.1428
     29 H5          3.3937    1.7556   -0.1545 H         1 <0>         0.4284
     30 H6          4.7133   -0.4623   -0.8413 H         1 <0>         0.1317
     31 H7          4.6643   -0.3933    0.9366 H         1 <0>         0.1276
     32 H8          3.8967   -5.0581   -1.2737 H         1 <0>         0.4401
     33 H9          2.4940   -4.9370    2.3657 H         1 <0>         0.0883
     34 H10         1.7268   -4.4590    0.8323 H         1 <0>         0.0789
     35 H11         2.5750   -6.5290   -0.2374 H         1 <0>         0.0647
     36 H12         3.3422   -7.0070    1.2960 H         1 <0>         0.0679
     37 O6          1.9742    4.9950   -1.6842 O.co2     1 <0>        -0.7435
     38 O7          0.9424   -8.3661    1.0400 O.co2     1 <0>        -0.7783
@<TRIPOS>BOND
     1    1    6 ar
     2    1    2 ar
     3    1   26 1
     4    2    3 ar
     5    2   27 1
     6    3    4 ar
     7    3   10 1
     8    4    5 ar
     9    4    8 1
    10    5    6 ar
    11    5   28 1
    12    6    7 1
    13    8    9 2
    14    8   37 1
    15   10   11 am
    16   10   29 1
    17   11   12 2
    18   11   13 1
    19   13   14 1
    20   13   30 1
    21   13   31 1
    22   14   20 am
    23   14   15 am
    24   15   16 2
    25   15   17 1
    26   17   18 1
    27   17   19 1
    28   17   22 1
    29   19   20 am
    30   19   32 1
    31   20   21 2
    32   22   23 1
    33   22   33 1
    34   22   34 1
    35   23   24 1
    36   23   35 1
    37   23   36 1
    38   24   25 2
    39   24   38 1
@<TRIPOS>MOLECULE
ZINC13422518
   44    45     0     0     0
SMALL
USER_CHARGES
4-[2-[[(1R)-1-(2-methoxyphenyl)ethyl]amino]-2-oxo-ethoxy]benzene-1,3-dicarboxylic acid
@<TRIPOS>ATOM
      1 C1         -0.1304   -0.5080   -1.4365 C.3       1 <0>        -0.1545
      2 C2          0.0021   -0.0041    0.0020 C.3       1 <0>         0.1935
      3 H1         -0.8291   -0.3820    0.5974 H         1 <0>         0.1028
      4 C3         -0.0184    1.5028    0.0103 C.ar      1 <0>        -0.1137
      5 C4          1.1683    2.2104    0.0028 C.ar      1 <0>        -0.0785
      6 C5          1.1502    3.5927    0.0103 C.ar      1 <0>        -0.1517
      7 C6         -0.0549    4.2707    0.0250 C.ar      1 <0>        -0.0853
      8 C7         -1.2440    3.5679    0.0326 C.ar      1 <0>        -0.2063
      9 C8         -1.2286    2.1805    0.0197 C.ar      1 <0>         0.1368
     10 O1         -2.3972    1.4868    0.0215 O.3       1 <0>        -0.3089
     11 C9         -3.6050    2.2505    0.0313 C.3       1 <0>         0.0277
     12 N1          1.2659   -0.4784    0.5712 N.am      1 <0>        -0.7356
     13 C10         1.3356   -1.7027    1.1305 C.2       1 <0>         0.5136
     14 O2          0.3521   -2.4116    1.1627 O.2       1 <0>        -0.4871
     15 C11         2.6357   -2.1906    1.7160 C.3       1 <0>         0.0348
     16 O3          2.4561   -3.5061    2.2445 O.3       1 <0>        -0.2462
     17 C12         3.5368   -4.0939    2.8114 C.ar      1 <0>         0.1464
     18 C13         4.7501   -3.4183    2.8594 C.ar      1 <0>        -0.2512
     19 C14         5.8512   -4.0106    3.4341 C.ar      1 <0>        -0.0410
     20 C15         5.7575   -5.2988    3.9750 C.ar      1 <0>        -0.1748
     21 C16         4.5463   -5.9860    3.9322 C.ar      1 <0>        -0.0019
     22 C17         3.4297   -5.3839    3.3559 C.ar      1 <0>        -0.1632
     23 C18         2.1422   -6.1010    3.3120 C.2       1 <0>         0.4937
     24 O4          1.1713   -5.5760    2.8040 O.co2     1 <0>        -0.6145
     25 C19         6.9414   -5.9285    4.5898 C.2       1 <0>         0.4994
     26 O5          6.8601   -7.0462    5.0591 O.co2     1 <0>        -0.6343
     27 H2         -1.0708   -0.1551   -1.8600 H         1 <0>         0.0644
     28 H3          0.7007   -0.1301   -2.0319 H         1 <0>         0.0549
     29 H4         -0.1157   -1.5979   -1.4425 H         1 <0>         0.0694
     30 H5          2.1108    1.6832   -0.0087 H         1 <0>         0.1297
     31 H6          2.0789    4.1440    0.0044 H         1 <0>         0.1252
     32 H7         -0.0664    5.3506    0.0309 H         1 <0>         0.1230
     33 H8         -2.1849    4.0979    0.0444 H         1 <0>         0.1277
     34 H9         -4.4613    1.5761    0.0317 H         1 <0>         0.1011
     35 H10        -3.6332    2.8741    0.9248 H         1 <0>         0.0545
     36 H11        -3.6417    2.8838   -0.8551 H         1 <0>         0.0536
     37 H12         2.0525    0.0886    0.5454 H         1 <0>         0.3949
     38 H13         3.3989   -2.2127    0.9381 H         1 <0>         0.0831
     39 H14         2.9498   -1.5181    2.5142 H         1 <0>         0.0828
     40 H15         4.8292   -2.4243    2.4444 H         1 <0>         0.1137
     41 H16         6.7911   -3.4798    3.4684 H         1 <0>         0.1251
     42 H17         4.4718   -6.9797    4.3488 H         1 <0>         0.1418
     43 O6          2.0422   -7.3387    3.8352 O.co2     1 <0>        -0.7691
     44 O7          8.1129   -5.2641    4.6308 O.co2     1 <0>        -0.7756
@<TRIPOS>BOND
     1    1    2 1
     2    1   27 1
     3    1   28 1
     4    1   29 1
     5    2    3 1
     6    2    4 1
     7    2   12 1
     8    4    9 ar
     9    4    5 ar
    10    5    6 ar
    11    5   30 1
    12    6    7 ar
    13    6   31 1
    14    7    8 ar
    15    7   32 1
    16    8    9 ar
    17    8   33 1
    18    9   10 1
    19   10   11 1
    20   11   34 1
    21   11   35 1
    22   11   36 1
    23   12   13 am
    24   12   37 1
    25   13   14 2
    26   13   15 1
    27   15   16 1
    28   15   38 1
    29   15   39 1
    30   16   17 1
    31   17   22 ar
    32   17   18 ar
    33   18   19 ar
    34   18   40 1
    35   19   20 ar
    36   19   41 1
    37   20   21 ar
    38   20   25 1
    39   21   22 ar
    40   21   42 1
    41   22   23 1
    42   23   24 2
    43   23   43 1
    44   25   26 2
    45   25   44 1
@<TRIPOS>MOLECULE
ZINC37538236
   50    49     0     0     0
SMALL
USER_CHARGES

@<TRIPOS>ATOM
      1 C1         -0.0110    1.6283    0.1421 C.3       1 <0>        -0.1454
      2 C2         -0.0213    0.1005    0.0610 C.3       1 <0>        -0.0542
      3 H1         -1.0514   -0.2557    0.0497 H         1 <0>         0.0707
      4 C3          0.7058   -0.4797    1.2757 C.3       1 <0>        -0.0699
      5 C4         -0.0606   -0.1418    2.5285 C.2       1 <0>        -0.1287
      6 C5         -0.9339   -1.0167    3.0333 C.2       1 <0>        -0.1196
      7 C6         -1.6085   -0.7292    4.2981 C.2       1 <0>        -0.0792
      8 C7         -2.3273    0.4110    4.4388 C.2       1 <0>        -0.1992
      9 C8         -3.0713    0.6363    5.6195 C.2       1 <0>         0.5029
     10 O1         -2.9926   -0.1531    6.5532 O.co2     1 <0>        -0.6923
     11 O2         -3.7949    1.6211    5.7091 O.co2     1 <0>        -0.7128
     12 C9         -1.5044   -1.7008    5.4454 C.3       1 <0>        -0.0777
     13 C10         0.1586    1.1835    3.2116 C.3       1 <0>        -0.1127
     14 C11         0.6765   -0.3403   -1.1999 C.2       1 <0>        -0.1596
     15 C12         0.0284   -1.0425   -2.0960 C.2       1 <0>        -0.1469
     16 C13         0.7262   -1.4832   -3.3569 C.3       1 <0>        -0.0796
     17 C14         0.6074   -3.0018   -3.5013 C.3       1 <0>        -0.1523
     18 C15         1.3158   -3.4493   -4.7814 C.3       1 <0>         0.1342
     19 H2          2.3459   -3.0930   -4.7702 H         1 <0>         0.0964
     20 C16         1.3055   -4.9771   -4.8626 C.3       1 <0>        -0.1915
     21 H3          0.2754   -5.3334   -4.8739 H         1 <0>         0.0683
     22 C17         2.0139   -5.4246   -6.1428 C.3       1 <0>         0.1065
     23 O3          1.9030   -6.8429   -6.2777 O.3       1 <0>        -0.5491
     24 C18         2.0216   -5.5486   -3.6661 C.2       1 <0>         0.5011
     25 O4          2.4963   -4.8030   -2.8263 O.co2     1 <0>        -0.6921
     26 O5          2.1263   -6.7565   -3.5380 O.co2     1 <0>        -0.6804
     27 O6          0.6368   -2.9074   -5.9160 O.3       1 <0>        -0.5774
     28 H4          1.0191    1.9846    0.1534 H         1 <0>         0.0509
     29 H5         -0.5289    2.0417   -0.7233 H         1 <0>         0.0479
     30 H6         -0.5157    1.9471    1.0541 H         1 <0>         0.0640
     31 H7          0.7763   -1.5626    1.1739 H         1 <0>         0.0700
     32 H8          1.7076   -0.0545    1.3368 H         1 <0>         0.0668
     33 H9         -1.1419   -1.9367    2.5073 H         1 <0>         0.1123
     34 H10        -2.3318    1.1474    3.6488 H         1 <0>         0.0943
     35 H11        -0.8234   -2.5084    5.1770 H         1 <0>         0.0258
     36 H12        -1.1250   -1.1832    6.3265 H         1 <0>         0.0739
     37 H13        -2.4897   -2.1134    5.6625 H         1 <0>         0.0690
     38 H14        -0.5987    1.8934    2.8789 H         1 <0>         0.0663
     39 H15         0.0844    1.0525    4.2911 H         1 <0>         0.0673
     40 H16         1.1486    1.5632    2.9588 H         1 <0>         0.0505
     41 H17         1.7109   -0.0772   -1.3648 H         1 <0>         0.1050
     42 H18        -1.0061   -1.3055   -1.9311 H         1 <0>         0.1022
     43 H19         0.2630   -0.9992   -4.2167 H         1 <0>         0.0631
     44 H20         1.7786   -1.2043   -3.3062 H         1 <0>         0.0607
     45 H21         1.0706   -3.4858   -2.6415 H         1 <0>         0.1182
     46 H22        -0.4451   -3.2807   -3.5520 H         1 <0>         0.0458
     47 H23         1.5508   -4.9405   -7.0026 H         1 <0>         0.0349
     48 H24         3.0664   -5.1456   -6.0921 H         1 <0>         0.0313
     49 H25         2.3306   -7.1973   -7.0693 H         1 <0>         0.3561
     50 H26        -0.2872   -3.1829   -5.9900 H         1 <0>         0.3640
@<TRIPOS>BOND
     1    1    2 1
     2    1   28 1
     3    1   29 1
     4    1   30 1
     5    2    3 1
     6    2    4 1
     7    2   14 1
     8    4    5 1
     9    4   31 1
    10    4   32 1
    11    5    6 2
    12    5   13 1
    13    6    7 1
    14    6   33 1
    15    7    8 2
    16    7   12 1
    17    8    9 1
    18    8   34 1
    19    9   10 2
    20    9   11 1
    21   12   35 1
    22   12   36 1
    23   12   37 1
    24   13   38 1
    25   13   39 1
    26   13   40 1
    27   14   15 2
    28   14   41 1
    29   15   16 1
    30   15   42 1
    31   16   17 1
    32   16   43 1
    33   16   44 1
    34   17   18 1
    35   17   45 1
    36   17   46 1
    37   18   19 1
    38   18   20 1
    39   18   27 1
    40   20   21 1
    41   20   22 1
    42   20   24 1
    43   22   23 1
    44   22   47 1
    45   22   48 1
    46   23   49 1
    47   24   25 2
    48   24   26 1
    49   27   50 1
@<TRIPOS>MOLECULE
ZINC41125013
   34    35     0     0     0
SMALL
USER_CHARGES

@<TRIPOS>ATOM
      1 C1         -0.0225    1.8097    0.0120 C.3       1 <0>        -0.1203
      2 S1          0.0021   -0.0041    0.0020 S.3       1 <0>        -0.2834
      3 C2         -1.7518   -0.4668    0.0163 C.3       1 <0>        -0.0738
      4 C3         -1.8771   -1.9917    0.0093 C.3       1 <0>        -0.0860
      5 C4         -3.3564   -2.3820    0.0213 C.3       1 <0>         0.0862
      6 H1         -3.8661   -1.9002   -0.8131 H         1 <0>         0.0851
      7 C5         -3.4823   -3.8780   -0.1094 C.2       1 <0>         0.4868
      8 O1         -3.4997   -4.5778    0.8889 O.co2     1 <0>        -0.6747
      9 O2         -3.5667   -4.3886   -1.2133 O.co2     1 <0>        -0.6914
     10 N1         -3.9655   -1.9489    1.2813 N.pl3     1 <0>        -1.0916
     11 S2         -5.5353   -1.4220    1.3041 S.o2      1 <0>         2.7084
     12 O3         -5.8372   -1.1035    2.6556 O.2       1 <0>        -0.9849
     13 O4         -5.6613   -0.4754    0.2519 O.2       1 <0>        -0.9796
     14 C6         -6.5518   -2.7946    0.8711 C.ar      1 <0>        -0.7031
     15 C7         -6.8592   -3.0307   -0.4602 C.ar      1 <0>        -0.0056
     16 C8         -7.6524   -4.1002   -0.8132 C.ar      1 <0>        -0.1353
     17 C9         -8.1486   -4.9502    0.1760 C.ar      1 <0>         0.1461
     18 C10        -7.8352   -4.7078    1.5216 C.ar      1 <0>        -0.0611
     19 C11        -7.0316   -3.6304    1.8589 C.ar      1 <0>         0.0396
     20 O5         -8.4467   -5.6799    2.2362 O.3       1 <0>        -0.2736
     21 C12        -9.1031   -6.4805    1.3794 C.2       1 <0>         0.5186
     22 O6         -9.8313   -7.5627    1.7344 O.3       1 <0>        -0.6525
     23 N2         -8.9359   -6.0608    0.1539 N.2       1 <0>        -0.6109
     24 H2          1.0001    2.1870    0.0043 H         1 <0>         0.0945
     25 H3         -0.5497    2.1708   -0.8711 H         1 <0>         0.0735
     26 H4         -0.5327    2.1613    0.9088 H         1 <0>         0.0731
     27 H5         -2.2257   -0.0675    0.9130 H         1 <0>         0.0817
     28 H6         -2.2427   -0.0579   -0.8669 H         1 <0>         0.0835
     29 H7         -1.4032   -2.3910   -0.8874 H         1 <0>         0.0825
     30 H8         -1.3862   -2.4006    0.8924 H         1 <0>         0.0756
     31 H9         -3.4492   -1.9707    2.1023 H         1 <0>         0.4110
     32 H10        -6.4748   -2.3719   -1.2248 H         1 <0>         0.1295
     33 H11        -7.8895   -4.2799   -1.8514 H         1 <0>         0.1236
     34 H12        -6.7847   -3.4427    2.8933 H         1 <0>         0.1284
@<TRIPOS>BOND
     1    1    2 1
     2    1   24 1
     3    1   25 1
     4    1   26 1
     5    2    3 1
     6    3    4 1
     7    3   27 1
     8    3   28 1
     9    4    5 1
    10    4   29 1
    11    4   30 1
    12    5    6 1
    13    5    7 1
    14    5   10 1
    15    7    8 2
    16    7    9 1
    17   10   11 1
    18   10   31 1
    19   11   12 2
    20   11   13 2
    21   11   14 1
    22   14   19 ar
    23   14   15 ar
    24   15   16 ar
    25   15   32 1
    26   16   17 ar
    27   16   33 1
    28   17   23 1
    29   17   18 ar
    30   18   19 ar
    31   18   20 1
    32   19   34 1
    33   20   21 1
    34   21   22 1
    35   21   23 2
@<TRIPOS>MOLECULE
ZINC60211046
   39    40     0     0     0
SMALL
USER_CHARGES

@<TRIPOS>ATOM
      1 C1         -0.0187    1.5258    0.0104 C.3       1 <0>        -0.1467
      2 C2          0.0021   -0.0041    0.0020 C.3       1 <0>         0.0579
      3 O1         -1.3386   -0.4987    0.0122 O.3       1 <0>        -0.3289
      4 C3         -1.4984   -1.8493    0.0064 C.ar      1 <0>         0.0084
      5 C4         -0.3867   -2.6789   -0.0029 C.ar      1 <0>        -0.1409
      6 C5         -0.5481   -4.0503   -0.0092 C.ar      1 <0>        -0.2354
      7 C6         -1.8239   -4.5989   -0.0057 C.ar      1 <0>         0.2614
      8 C7         -2.9361   -3.7679    0.0041 C.ar      1 <0>        -0.1248
      9 C8         -2.7728   -2.3963    0.0157 C.ar      1 <0>        -0.0828
     10 C9         -3.9797   -1.4940    0.0320 C.3       1 <0>         0.1380
     11 O2         -5.1678   -2.2880    0.0391 O.3       1 <0>        -0.5628
     12 N1         -1.9884   -5.9886   -0.0125 N.2       1 <0>        -1.0772
     13 S1         -0.6616   -6.9794   -0.0248 S.o2      1 <0>         2.6092
     14 O3         -0.0130   -6.7742   -1.2723 O.2       1 <0>        -1.0293
     15 O4         -0.0002   -6.7879    1.2183 O.2       1 <0>        -1.0225
     16 C10        -1.2513   -8.6398   -0.0309 C.ar      1 <0>        -0.6444
     17 C11        -1.0060   -9.4514   -1.1168 C.ar      1 <0>         0.0420
     18 C12        -1.4737  -10.7691   -1.1212 C.ar      1 <0>        -0.1946
     19 C13        -2.1893  -11.2544   -0.0193 C.ar      1 <0>         0.1780
     20 C14        -2.4273  -10.4279    1.0624 C.ar      1 <0>        -0.1954
     21 C15        -1.9555   -9.1267    1.0593 C.ar      1 <0>         0.0824
     22 Cl1        -2.2531   -8.0971    2.4249 Cl        1 <0>        -0.0400
     23 F1         -2.6458  -12.5259   -0.0142 F         1 <0>        -0.1141
     24 C16        -1.2155  -11.6423   -2.2789 C.2       1 <0>         0.5270
     25 O5         -0.5905  -11.2151   -3.2398 O.co2     1 <0>        -0.6782
     26 O6         -1.6261  -12.7945   -2.2795 O.co2     1 <0>        -0.6790
     27 H1          1.0039    1.9031    0.0027 H         1 <0>         0.0678
     28 H2         -0.5459    1.8868   -0.8726 H         1 <0>         0.0604
     29 H3         -0.5289    1.8773    0.9072 H         1 <0>         0.0599
     30 H4          0.5123   -0.3556   -0.8948 H         1 <0>         0.0524
     31 H5          0.5293   -0.3651    0.8851 H         1 <0>         0.0517
     32 H6          0.6054   -2.2521   -0.0056 H         1 <0>         0.1065
     33 H7          0.3176   -4.6960   -0.0172 H         1 <0>         0.1001
     34 H8         -3.9286   -4.1937    0.0069 H         1 <0>         0.1303
     35 H9         -3.9546   -0.8697    0.9252 H         1 <0>         0.0472
     36 H10        -3.9716   -0.8602   -0.8547 H         1 <0>         0.0477
     37 H11        -5.9856   -1.7720    0.0497 H         1 <0>         0.3678
     38 H12        -0.4538   -9.0705   -1.9632 H         1 <0>         0.1595
     39 H13        -2.9788  -10.7993    1.9135 H         1 <0>         0.1410
@<TRIPOS>BOND
     1    1    2 1
     2    1   27 1
     3    1   28 1
     4    1   29 1
     5    2    3 1
     6    2   30 1
     7    2   31 1
     8    3    4 1
     9    4    9 ar
    10    4    5 ar
    11    5    6 ar
    12    5   32 1
    13    6    7 ar
    14    6   33 1
    15    7    8 ar
    16    7   12 1
    17    8    9 ar
    18    8   34 1
    19    9   10 1
    20   10   11 1
    21   10   35 1
    22   10   36 1
    23   11   37 1
    24   12   13 1
    25   13   14 2
    26   13   15 2
    27   13   16 1
    28   16   21 ar
    29   16   17 ar
    30   17   18 ar
    31   17   38 1
    32   18   19 ar
    33   18   24 1
    34   19   20 ar
    35   19   23 1
    36   20   21 ar
    37   20   39 1
    38   21   22 1
    39   24   25 2
    40   24   26 1
@<TRIPOS>MOLECULE
ZINC16909756
   37    39     0     0     0
SMALL
USER_CHARGES
2-[3-[(E)-[2-[(3-chlorophenyl)amino]-4-oxo-thiazol-5-ylidene]methyl]phenoxy]acetic acid
@<TRIPOS>ATOM
      1 C1          2.1871    6.8156    0.7536 C.ar      1 <0>        -0.0906
      2 C2          3.4697    7.2968    0.5942 C.ar      1 <0>        -0.0891
      3 C3          4.3166    6.7238   -0.3611 C.ar      1 <0>        -0.0269
      4 C4          3.8554    5.6646   -1.1497 C.ar      1 <0>        -0.1363
      5 C5          2.5663    5.1920   -0.9790 C.ar      1 <0>         0.1225
      6 C6          1.7321    5.7719   -0.0316 C.ar      1 <0>        -0.2046
      7 O1          2.1138    4.1630   -1.7429 O.3       1 <0>        -0.2919
      8 C7          0.7729    3.7256   -1.5137 C.3       1 <0>         0.0191
      9 C8          0.4499    2.5861   -2.4456 C.2       1 <0>         0.4707
     10 O2          1.2827    2.1893   -3.2259 O.co2     1 <0>        -0.6155
     11 O3         -0.7628    2.0120   -2.4086 O.co2     1 <0>        -0.7625
     12 C9          5.6847    7.2331   -0.5355 C.2       1 <0>        -0.0040
     13 C10         5.9195    8.5680   -0.5091 C.2       1 <0>        -0.1945
     14 C11         4.9623    9.7010   -0.4830 C.2       1 <0>         0.5272
     15 O4          3.7548    9.5243   -0.4829 O.2       1 <0>        -0.5134
     16 N1          5.4872   10.9058   -0.4553 N.2       1 <0>        -0.7158
     17 C12         6.7949   11.1115   -0.4624 C.2       1 <0>         0.4554
     18 S1          7.4704    9.4587   -0.5037 S.3       1 <0>        -0.1365
     19 N2          7.4680   12.3049   -0.4425 N.2       1 <0>        -0.5824
     20 C13         6.7581   13.5066   -0.3643 C.ar      1 <0>         0.1775
     21 C14         5.4723   13.5906   -0.8839 C.ar      1 <0>        -0.1506
     22 C15         4.7712   14.7774   -0.8006 C.ar      1 <0>        -0.0959
     23 C16         5.3513   15.8853   -0.2104 C.ar      1 <0>        -0.1651
     24 C17         6.6338   15.8072    0.3036 C.ar      1 <0>        -0.0188
     25 C18         7.3387   14.6204    0.2279 C.ar      1 <0>        -0.1370
     26 Cl1         7.3581   17.2006    1.0436 Cl        1 <0>        -0.1010
     27 H1          1.5343    7.2582    1.4914 H         1 <0>         0.1173
     28 H2          3.8201    8.1151    1.2058 H         1 <0>         0.1188
     29 H3          4.5033    5.2170   -1.8888 H         1 <0>         0.1285
     30 H4          0.7249    5.4033    0.0953 H         1 <0>         0.1238
     31 H5          0.6705    3.3876   -0.4719 H         1 <0>         0.0642
     32 H6          0.0788    4.5586   -1.6988 H         1 <0>         0.0648
     33 H7          6.5178    6.5310   -0.6874 H         1 <0>         0.1360
     34 H8          5.0200   12.7272   -1.3490 H         1 <0>         0.1482
     35 H9          3.7702   14.8416   -1.2008 H         1 <0>         0.1176
     36 H10         4.8025   16.8136   -0.1509 H         1 <0>         0.1163
     37 H11         8.3399   14.5597    0.6285 H         1 <0>         0.1243
@<TRIPOS>BOND
     1    1    6 ar
     2    1    2 ar
     3    1   27 1
     4    2    3 ar
     5    2   28 1
     6    3    4 ar
     7    3   12 1
     8    4    5 ar
     9    4   29 1
    10    5    6 ar
    11    5    7 1
    12    6   30 1
    13    7    8 1
    14    8    9 1
    15    8   31 1
    16    8   32 1
    17    9   10 2
    18    9   11 1
    19   12   13 2
    20   12   33 1
    21   13   18 1
    22   13   14 1
    23   14   15 2
    24   14   16 1
    25   16   17 2
    26   17   18 1
    27   17   19 1
    28   19   20 1
    29   20   25 ar
    30   20   21 ar
    31   21   22 ar
    32   21   34 1
    33   22   23 ar
    34   22   35 1
    35   23   24 ar
    36   23   36 1
    37   24   25 ar
    38   24   26 1
    39   25   37 1
@<TRIPOS>MOLECULE
ZINC13275925
   46    49     0     0     0
SMALL
USER_CHARGES

@<TRIPOS>ATOM
      1 C1         -0.1020   -4.7098    3.8656 C.3       1 <0>         0.0308
      2 O1         -0.0544   -4.0943    2.5769 O.3       1 <0>        -0.2888
      3 C2          0.4452   -2.8320    2.5141 C.ar      1 <0>         0.1597
      4 C3          0.9813   -2.2396    3.6485 C.ar      1 <0>        -0.2147
      5 C4          1.4888   -0.9567    3.5821 C.ar      1 <0>        -0.0902
      6 C5          1.4629   -0.2627    2.3862 C.ar      1 <0>        -0.1639
      7 C6          0.9288   -0.8505    1.2547 C.ar      1 <0>        -0.0792
      8 C7          0.4251   -2.1357    1.3146 C.ar      1 <0>        -0.0965
      9 C8         -0.1512   -2.7782    0.0792 C.3       1 <0>         0.2562
     10 H1          0.1036   -2.1898   -0.8022 H         1 <0>         0.0714
     11 C9         -1.6519   -2.8976    0.2079 C.2       1 <0>        -0.4832
     12 C10        -1.9454   -4.2204    0.1433 C.2       1 <0>         0.3050
     13 C11        -0.6919   -4.9869   -0.0241 C.2       1 <0>         0.5098
     14 O2         -0.6210   -6.1965   -0.1145 O.2       1 <0>        -0.5020
     15 N1          0.3596   -4.1466   -0.0627 N.am      1 <0>        -0.5394
     16 C12         1.7005   -4.5120   -0.2116 C.ar      1 <0>         0.1717
     17 C13         2.6896   -3.5347   -0.2292 C.ar      1 <0>        -0.1686
     18 C14         4.0172   -3.8902   -0.3761 C.ar      1 <0>        -0.1175
     19 C15         4.3709   -5.2177   -0.5066 C.ar      1 <0>        -0.1220
     20 C16         3.3853   -6.2080   -0.4898 C.ar      1 <0>        -0.1123
     21 C17         2.0448   -5.8490   -0.3361 C.ar      1 <0>        -0.1213
     22 C18         3.7602   -7.6283   -0.6295 C.2       1 <0>         0.5225
     23 O3          4.9354   -7.9405   -0.7602 O.co2     1 <0>        -0.6989
     24 O4          2.8958   -8.4932   -0.6146 O.co2     1 <0>        -0.6813
     25 O5         -3.1855   -4.7528    0.2196 O.3       1 <0>        -0.6062
     26 C19        -2.5726   -1.8355    0.3658 C.2       1 <0>         0.4484
     27 O6         -3.7464   -2.0740    0.5627 O.2       1 <0>        -0.5154
     28 C20        -2.0963   -0.4078    0.2895 C.3       1 <0>        -0.1906
     29 C21        -2.6328    0.5727    1.3344 C.3       1 <0>        -0.1583
     30 C22        -3.1180    0.6572   -0.1141 C.3       1 <0>        -0.1669
     31 H2         -0.6581   -4.0720    4.5526 H         1 <0>         0.0491
     32 H3         -0.5966   -5.6781    3.7878 H         1 <0>         0.0964
     33 H4          0.9124   -4.8490    4.2395 H         1 <0>         0.0492
     34 H5          1.0014   -2.7811    4.5828 H         1 <0>         0.1205
     35 H6          1.9059   -0.4951    4.4649 H         1 <0>         0.1139
     36 H7          1.8602    0.7403    2.3363 H         1 <0>         0.1151
     37 H8          0.9094   -0.3064    0.3220 H         1 <0>         0.1235
     38 H9          2.4194   -2.4940   -0.1279 H         1 <0>         0.1149
     39 H10         4.7805   -3.1263   -0.3893 H         1 <0>         0.1104
     40 H11         5.4093   -5.4911   -0.6219 H         1 <0>         0.1192
     41 H12         1.2785   -6.6098   -0.3186 H         1 <0>         0.1563
     42 H13        -1.0685   -0.2724   -0.0472 H         1 <0>         0.1086
     43 H14        -3.3302    0.1851    2.0770 H         1 <0>         0.0916
     44 H15        -1.9578    1.3533    1.6855 H         1 <0>         0.0887
     45 H16        -2.7623    1.4934   -0.7161 H         1 <0>         0.0877
     46 H17        -4.1347    0.3252   -0.3246 H         1 <0>         0.0965
@<TRIPOS>BOND
     1    1    2 1
     2    1   31 1
     3    1   32 1
     4    1   33 1
     5    2    3 1
     6    3    8 ar
     7    3    4 ar
     8    4    5 ar
     9    4   34 1
    10    5    6 ar
    11    5   35 1
    12    6    7 ar
    13    6   36 1
    14    7    8 ar
    15    7   37 1
    16    8    9 1
    17    9   10 1
    18    9   15 1
    19    9   11 1
    20   11   12 2
    21   11   26 1
    22   12   13 1
    23   12   25 1
    24   13   14 2
    25   13   15 am
    26   15   16 1
    27   16   21 ar
    28   16   17 ar
    29   17   18 ar
    30   17   38 1
    31   18   19 ar
    32   18   39 1
    33   19   20 ar
    34   19   40 1
    35   20   21 ar
    36   20   22 1
    37   21   41 1
    38   22   23 2
    39   22   24 1
    40   26   27 2
    41   26   28 1
    42   28   30 1
    43   28   29 1
    44   28   42 1
    45   29   30 1
    46   29   43 1
    47   29   44 1
    48   30   45 1
    49   30   46 1
@<TRIPOS>MOLECULE
ZINC13349098
   34    35     0     0     0
SMALL
USER_CHARGES

@<TRIPOS>ATOM
      1 C1         -0.5788    1.4386    0.0969 C.3       1 <0>        -0.1011
      2 C2         -0.2670   -0.0348    0.0436 C.ar      1 <0>        -0.0294
      3 C3         -0.3659   -0.7197   -1.1497 C.ar      1 <0>        -0.1582
      4 C4         -0.0800   -2.0725   -1.2006 C.ar      1 <0>        -0.0367
      5 C5          0.3069   -2.7484   -0.0564 C.ar      1 <0>        -0.6326
      6 C6          0.4096   -2.0768    1.1437 C.ar      1 <0>         0.0040
      7 C7          0.1284   -0.7092    1.2013 C.ar      1 <0>        -0.1452
      8 C8          0.2428    0.0177    2.4801 C.2       1 <0>         0.5309
      9 O1          0.9234    1.0314    2.5484 O.co2     1 <0>        -0.6868
     10 O2         -0.3431   -0.3934    3.4717 O.co2     1 <0>        -0.6870
     11 S1          0.6684   -4.4712   -0.1332 S.o2      1 <0>         2.6169
     12 O3          0.4791   -4.9847    1.1782 O.2       1 <0>        -1.0248
     13 O4         -0.0300   -4.9829   -1.2599 O.2       1 <0>        -1.0333
     14 N1          2.2831   -4.6181   -0.4704 N.2       1 <0>        -1.0781
     15 C9          2.8591   -5.8855   -0.5916 C.ar      1 <0>         0.2903
     16 C10         2.0772   -7.0230   -0.4351 C.ar      1 <0>        -0.2343
     17 C11         2.6489   -8.2742   -0.5559 C.ar      1 <0>        -0.0472
     18 C12         3.9996   -8.3955   -0.8326 C.ar      1 <0>        -0.1085
     19 C13         4.7807   -7.2642   -0.9889 C.ar      1 <0>        -0.1315
     20 C14         4.2130   -6.0101   -0.8744 C.ar      1 <0>        -0.1274
     21 C15         6.2510   -7.4003   -1.2901 C.3       1 <0>         0.5107
     22 F1          6.8235   -6.1288   -1.4033 F         1 <0>        -0.1791
     23 F2          6.8761   -8.1027   -0.2542 F         1 <0>        -0.1788
     24 F3          6.4183   -8.0958   -2.4924 F         1 <0>        -0.1797
     25 Cl1         4.7151   -9.9699   -0.9832 Cl        1 <0>        -0.1001
     26 H1          0.3441    2.0093   -0.0057 H         1 <0>         0.0740
     27 H2         -1.2575    1.6960   -0.7163 H         1 <0>         0.0502
     28 H3         -1.0488    1.6762    1.0513 H         1 <0>         0.0695
     29 H4         -0.6675   -0.1988   -2.0464 H         1 <0>         0.1180
     30 H5         -0.1594   -2.6037   -2.1375 H         1 <0>         0.1273
     31 H6          0.7112   -2.6056    2.0358 H         1 <0>         0.1321
     32 H7          1.0233   -6.9290   -0.2189 H         1 <0>         0.1147
     33 H8          2.0416   -9.1589   -0.4340 H         1 <0>         0.1232
     34 H9          4.8223   -5.1274   -1.0009 H         1 <0>         0.1380
@<TRIPOS>BOND
     1    1    2 1
     2    1   26 1
     3    1   27 1
     4    1   28 1
     5    2    7 ar
     6    2    3 ar
     7    3    4 ar
     8    3   29 1
     9    4    5 ar
    10    4   30 1
    11    5    6 ar
    12    5   11 1
    13    6    7 ar
    14    6   31 1
    15    7    8 1
    16    8    9 2
    17    8   10 1
    18   11   12 2
    19   11   13 2
    20   11   14 1
    21   14   15 1
    22   15   20 ar
    23   15   16 ar
    24   16   17 ar
    25   16   32 1
    26   17   18 ar
    27   17   33 1
    28   18   19 ar
    29   18   25 1
    30   19   20 ar
    31   19   21 1
    32   20   34 1
    33   21   22 1
    34   21   23 1
    35   21   24 1
@<TRIPOS>MOLECULE
ZINC57878104
   44    46     0     0     0
SMALL
USER_CHARGES

@<TRIPOS>ATOM
      1 C1         -1.9458    1.2048    1.6982 C.3       1 <0>        -0.1302
      2 C2         -2.5060    0.3264    0.5777 C.3       1 <0>        -0.1315
      3 C3         -3.0808    1.2147   -0.5276 C.3       1 <0>        -0.1185
      4 C4         -1.4027   -0.5297    0.0113 C.2       1 <0>         0.4422
      5 O1         -0.2506   -0.1525    0.0707 O.2       1 <0>        -0.5419
      6 C5         -1.7098   -1.7729   -0.5896 C.2       1 <0>        -0.4837
      7 C6         -2.9482   -2.2742   -0.8249 C.2       1 <0>         0.2912
      8 C7         -2.8198   -3.5991   -1.4691 C.2       1 <0>         0.4933
      9 O2         -3.7505   -4.3041   -1.8053 O.2       1 <0>        -0.4944
     10 N1         -1.5202   -3.9085   -1.6280 N.am      1 <0>        -0.5471
     11 C8         -0.7221   -2.7962   -1.0994 C.3       1 <0>         0.2540
     12 H1         -0.1089   -2.3637   -1.8900 H         1 <0>         0.0785
     13 C9          0.1518   -3.2798    0.0291 C.ar      1 <0>        -0.0435
     14 C10        -0.3606   -4.1448    0.9782 C.ar      1 <0>        -0.0885
     15 C11         0.4403   -4.5887    2.0136 C.ar      1 <0>        -0.1108
     16 C12         1.7541   -4.1677    2.1009 C.ar      1 <0>        -0.1225
     17 C13         2.2673   -3.3022    1.1516 C.ar      1 <0>        -0.0343
     18 C14         1.4667   -2.8630    0.1119 C.ar      1 <0>        -0.0856
     19 Cl1         3.9171   -2.7730    1.2606 Cl        1 <0>        -0.0910
     20 C15        -1.0185   -5.0810   -2.2002 C.ar      1 <0>         0.1606
     21 C16         0.3551   -5.2751   -2.2965 C.ar      1 <0>        -0.1626
     22 C17         0.8569   -6.4325   -2.8614 C.ar      1 <0>        -0.1164
     23 C18        -0.0016   -7.4041   -3.3339 C.ar      1 <0>        -0.1164
     24 C19        -1.3836   -7.2198   -3.2417 C.ar      1 <0>        -0.1120
     25 C20        -1.8902   -6.0528   -2.6663 C.ar      1 <0>        -0.1199
     26 C21        -2.3042   -8.2567   -3.7461 C.2       1 <0>         0.5223
     27 O3         -1.8581   -9.2798   -4.2459 O.co2     1 <0>        -0.6968
     28 O4         -3.5134   -8.0931   -3.6643 O.co2     1 <0>        -0.6811
     29 O5         -4.1133   -1.6608   -0.5193 O.3       1 <0>        -0.6150
     30 H2         -2.7438    1.8240    2.1079 H         1 <0>         0.0436
     31 H3         -1.5364    0.5720    2.4856 H         1 <0>         0.0454
     32 H4         -1.1582    1.8441    1.2994 H         1 <0>         0.0533
     33 H5         -3.2937   -0.3129    0.9764 H         1 <0>         0.1025
     34 H6         -3.9387    1.7654   -0.1418 H         1 <0>         0.0458
     35 H7         -2.3181    1.9179   -0.8620 H         1 <0>         0.0393
     36 H8         -3.3950    0.5935   -1.3663 H         1 <0>         0.0646
     37 H9         -1.3872   -4.4735    0.9108 H         1 <0>         0.1209
     38 H10         0.0395   -5.2644    2.7546 H         1 <0>         0.1255
     39 H11         2.3796   -4.5140    2.9103 H         1 <0>         0.1238
     40 H12         1.8682   -2.1908   -0.6320 H         1 <0>         0.1310
     41 H13         1.0324   -4.5184   -1.9289 H         1 <0>         0.1150
     42 H14         1.9247   -6.5769   -2.9335 H         1 <0>         0.1127
     43 H15         0.3946   -8.3067   -3.7752 H         1 <0>         0.1213
     44 H16        -2.9573   -5.9060   -2.5884 H         1 <0>         0.1572
@<TRIPOS>BOND
     1    1    2 1
     2    1   30 1
     3    1   31 1
     4    1   32 1
     5    2    3 1
     6    2    4 1
     7    2   33 1
     8    3   34 1
     9    3   35 1
    10    3   36 1
    11    4    5 2
    12    4    6 1
    13    6   11 1
    14    6    7 2
    15    7    8 1
    16    7   29 1
    17    8    9 2
    18    8   10 am
    19   10   11 1
    20   10   20 1
    21   11   12 1
    22   11   13 1
    23   13   18 ar
    24   13   14 ar
    25   14   15 ar
    26   14   37 1
    27   15   16 ar
    28   15   38 1
    29   16   17 ar
    30   16   39 1
    31   17   18 ar
    32   17   19 1
    33   18   40 1
    34   20   25 ar
    35   20   21 ar
    36   21   22 ar
    37   21   41 1
    38   22   23 ar
    39   22   42 1
    40   23   24 ar
    41   23   43 1
    42   24   25 ar
    43   24   26 1
    44   25   44 1
    45   26   27 2
    46   26   28 1
@<TRIPOS>MOLECULE
ZINC65474409
   36    38     0     0     0
SMALL
USER_CHARGES

@<TRIPOS>ATOM
      1 C1         -0.0184    1.5028    0.0103 C.3       1 <0>        -0.1048
      2 C2          0.0021   -0.0041    0.0020 C.ar      1 <0>         0.0131
      3 C3          0.0057   -0.6877   -1.1974 C.ar      1 <0>        -0.1715
      4 C4          0.0246   -2.0765   -1.2049 C.ar      1 <0>         0.2825
      5 C5          0.0397   -2.7774   -0.0054 C.ar      1 <0>        -0.2637
      6 C6          0.0361   -2.0934    1.1934 C.ar      1 <0>        -0.0538
      7 C7          0.0230   -0.7046    1.2006 C.ar      1 <0>         0.0308
      8 N1          0.0251   -0.0100    2.4185 N.pl3     1 <0>        -0.3467
      9 C8          1.0337   -0.0038    3.3240 C.2       1 <0>        -0.0289
     10 C9          0.6776    0.7774    4.3740 C.2       1 <0>        -0.2275
     11 C10        -0.6000    1.2813    4.1218 C.2       1 <0>        -0.1836
     12 C11        -0.9968    0.7864    2.8931 C.2       1 <0>        -0.0193
     13 C12        -2.2289    1.0472    2.2417 C.2       1 <0>         0.5364
     14 O1         -2.4631    0.5436    1.1498 O.co2     1 <0>        -0.6699
     15 O2         -3.0591    1.7762    2.7707 O.co2     1 <0>        -0.7035
     16 N2          0.0278   -2.7691   -2.4194 N.2       1 <0>        -1.0824
     17 S1          0.0502   -4.4249   -2.4282 S.o2      1 <0>         2.6159
     18 O3          1.3038   -4.8170   -1.8859 O.2       1 <0>        -1.0212
     19 O4         -1.1866   -4.8508   -1.8733 O.2       1 <0>        -1.0177
     20 C13         0.0486   -4.9369   -4.1142 C.2       1 <0>        -0.6474
     21 C14         1.1006   -5.1758   -4.9343 C.2       1 <0>        -0.0480
     22 C15         0.8593   -5.5736   -6.2364 C.2       1 <0>        -0.1576
     23 C16        -0.4240   -5.7127   -6.6537 C.2       1 <0>        -0.1252
     24 S2         -1.3393   -5.2830   -5.1824 S.3       1 <0>         0.2033
     25 Cl1        -1.0210   -6.1911   -8.2120 Cl        1 <0>         0.0059
     26 H1          1.0042    1.8801    0.0026 H         1 <0>         0.0467
     27 H2         -0.5455    1.8639   -0.8728 H         1 <0>         0.0582
     28 H3         -0.5286    1.8543    0.9071 H         1 <0>         0.0763
     29 H4         -0.0064   -0.1427   -2.1297 H         1 <0>         0.1149
     30 H5          0.0540   -3.8572   -0.0110 H         1 <0>         0.0973
     31 H6          0.0475   -2.6382    2.1258 H         1 <0>         0.1031
     32 H7          1.9689   -0.5349    3.2255 H         1 <0>         0.1461
     33 H8          1.2764    0.9745    5.2509 H         1 <0>         0.1201
     34 H9         -1.1695    1.9370    4.7638 H         1 <0>         0.1272
     35 H10         2.1126   -5.0570   -4.5762 H         1 <0>         0.1522
     36 H11         1.6797   -5.7701   -6.9108 H         1 <0>         0.1426
@<TRIPOS>BOND
     1    1    2 1
     2    1   26 1
     3    1   27 1
     4    1   28 1
     5    2    7 ar
     6    2    3 ar
     7    3    4 ar
     8    3   29 1
     9    4    5 ar
    10    4   16 1
    11    5    6 ar
    12    5   30 1
    13    6    7 ar
    14    6   31 1
    15    7    8 1
    16    8   12 1
    17    8    9 1
    18    9   10 2
    19    9   32 1
    20   10   11 1
    21   10   33 1
    22   11   12 2
    23   11   34 1
    24   12   13 1
    25   13   14 2
    26   13   15 1
    27   16   17 1
    28   17   18 2
    29   17   19 2
    30   17   20 1
    31   20   24 1
    32   20   21 2
    33   21   22 1
    34   21   35 1
    35   22   23 2
    36   22   36 1
    37   23   24 1
    38   23   25 1
@<TRIPOS>MOLECULE
ZINC13422370
   39    41     0     0     0
SMALL
USER_CHARGES
4-[2-(2,3-dihydro-1,4-benzothiazin-4-yl)-2-oxo-ethoxy]benzene-1,3-dicarboxylic acid
@<TRIPOS>ATOM
      1 C1          0.1079    5.5948    0.0856 C.ar      1 <0>        -0.0983
      2 C2         -1.0367    6.3289   -0.1670 C.ar      1 <0>        -0.1320
      3 C3         -2.2497    5.6850   -0.3113 C.ar      1 <0>        -0.0828
      4 C4         -2.3244    4.3013   -0.2035 C.ar      1 <0>        -0.1200
      5 C5         -1.1743    3.5584    0.0448 C.ar      1 <0>         0.1597
      6 C6          0.0426    4.2203    0.1909 C.ar      1 <0>        -0.1417
      7 N1         -1.1829    2.1658    0.1540 N.am      1 <0>        -0.5606
      8 C7         -2.3956    1.3950    0.4107 C.3       1 <0>         0.0942
      9 C8         -3.4523    1.7650   -0.6350 C.3       1 <0>        -0.1220
     10 S1         -3.8920    3.5111   -0.3829 S.3       1 <0>        -0.1253
     11 C9         -0.0184    1.5028    0.0103 C.2       1 <0>         0.5114
     12 O1          1.0094    2.1171   -0.1833 O.2       1 <0>        -0.4544
     13 C10         0.0059   -0.0022    0.0840 C.3       1 <0>         0.0371
     14 O2          1.3497   -0.4648   -0.0648 O.3       1 <0>        -0.2460
     15 C11         1.5473   -1.8043   -0.0218 C.ar      1 <0>         0.1434
     16 C12         0.4680   -2.6604    0.1602 C.ar      1 <0>        -0.2501
     17 C13         0.6630   -4.0218    0.2047 C.ar      1 <0>        -0.0408
     18 C14         1.9504   -4.5551    0.0668 C.ar      1 <0>        -0.1715
     19 C15         3.0401   -3.7063   -0.1157 C.ar      1 <0>        -0.0015
     20 C16         2.8421   -2.3280   -0.1670 C.ar      1 <0>        -0.1603
     21 C17         3.9885   -1.4226   -0.3664 C.2       1 <0>         0.4939
     22 O3          3.8139   -0.2208   -0.4054 O.co2     1 <0>        -0.6163
     23 C18         2.1530   -6.0154    0.1154 C.2       1 <0>         0.4988
     24 O4          3.2701   -6.4781   -0.0042 O.co2     1 <0>        -0.6331
     25 H1          1.0560    6.0989    0.2012 H         1 <0>         0.1278
     26 H2         -0.9819    7.4043   -0.2510 H         1 <0>         0.1245
     27 H3         -3.1434    6.2585   -0.5082 H         1 <0>         0.1267
     28 H4          0.9408    3.6542    0.3885 H         1 <0>         0.1839
     29 H5         -2.1731    0.3302    0.3426 H         1 <0>         0.1137
     30 H6         -2.7733    1.6287    1.4061 H         1 <0>         0.0943
     31 H7         -4.3354    1.1391   -0.5070 H         1 <0>         0.1296
     32 H8         -3.0437    1.6274   -1.6361 H         1 <0>         0.0990
     33 H9         -0.3848   -0.3251    1.0489 H         1 <0>         0.0890
     34 H10        -0.6110   -0.4150   -0.7143 H         1 <0>         0.0887
     35 H11        -0.5276   -2.2557    0.2669 H         1 <0>         0.1125
     36 H12        -0.1803   -4.6817    0.3462 H         1 <0>         0.1264
     37 H13         4.0339   -4.1154   -0.2223 H         1 <0>         0.1430
     38 O5          5.2299   -1.9279   -0.5055 O.co2     1 <0>        -0.7665
     39 O6          1.0993   -6.8362    0.2924 O.co2     1 <0>        -0.7742
@<TRIPOS>BOND
     1    1    6 ar
     2    1    2 ar
     3    1   25 1
     4    2    3 ar
     5    2   26 1
     6    3    4 ar
     7    3   27 1
     8    4   10 1
     9    4    5 ar
    10    5    6 ar
    11    5    7 1
    12    6   28 1
    13    7    8 1
    14    7   11 am
    15    8    9 1
    16    8   29 1
    17    8   30 1
    18    9   10 1
    19    9   31 1
    20    9   32 1
    21   11   12 2
    22   11   13 1
    23   13   14 1
    24   13   33 1
    25   13   34 1
    26   14   15 1
    27   15   20 ar
    28   15   16 ar
    29   16   17 ar
    30   16   35 1
    31   17   18 ar
    32   17   36 1
    33   18   19 ar
    34   18   23 1
    35   19   20 ar
    36   19   37 1
    37   20   21 1
    38   21   22 2
    39   21   38 1
    40   23   24 2
    41   23   39 1
@<TRIPOS>MOLECULE
ZINC36048612
   47    49     0     0     0
SMALL
USER_CHARGES

@<TRIPOS>ATOM
      1 C1          1.2442   -1.1981   -2.1895 C.3       1 <0>        -0.1491
      2 C2          0.5782   -1.2865   -0.8149 C.3       1 <0>         0.0567
      3 O1         -0.7794   -1.7049   -0.9694 O.3       1 <0>        -0.3587
      4 C3         -1.5420   -1.7346    0.1440 C.2       1 <0>         0.5662
      5 O2         -1.0939   -1.3269    1.1995 O.2       1 <0>        -0.5093
      6 C4         -2.8604   -2.2391    0.0840 C.2       1 <0>        -0.4039
      7 C5         -3.0982   -3.5799    0.0091 C.2       1 <0>         0.2505
      8 N1         -4.3413   -4.0489   -0.0471 N.2       1 <0>        -0.6148
      9 C6         -5.4167   -3.3101   -0.0372 C.2       1 <0>         0.3077
     10 N2         -5.3973   -1.9399    0.0335 N.pl3     1 <0>        -0.5071
     11 C7         -4.0540   -1.3094    0.1071 C.3       1 <0>         0.2786
     12 H1         -3.9619   -0.6229   -0.7346 H         1 <0>         0.0618
     13 C8         -3.9855   -0.4960    1.3739 C.ar      1 <0>        -0.0623
     14 C9         -4.6023   -0.9537    2.5235 C.ar      1 <0>        -0.0717
     15 C10        -4.5395   -0.2078    3.6853 C.ar      1 <0>        -0.1230
     16 C11        -3.8595    0.9959    3.6981 C.ar      1 <0>        -0.0983
     17 C12        -3.2421    1.4531    2.5491 C.ar      1 <0>        -0.1200
     18 C13        -3.3013    0.7048    1.3880 C.ar      1 <0>        -0.0630
     19 C14        -2.6237    1.2008    0.1366 C.3       1 <0>        -0.1110
     20 C15        -3.7918    1.8098    4.9646 C.3       1 <0>        -0.1012
     21 C16        -6.6167   -1.3204    0.0341 C.2       1 <0>         0.2265
     22 C17        -7.8005   -2.1808   -0.0403 C.2       1 <0>        -0.5174
     23 S1         -7.1445   -3.7260   -0.1027 S.3       1 <0>         0.1537
     24 C18        -6.7271    0.0520    0.1021 C.2       1 <0>        -0.4365
     25 C19        -7.9999    0.6532    0.2577 C.2       1 <0>         0.4951
     26 O3         -9.0751   -0.1071    0.4721 O.co2     1 <0>        -0.7462
     27 O4         -8.1238    1.9799    0.1900 O.co2     1 <0>        -0.7886
     28 C20        -1.9382   -4.5417   -0.0106 C.3       1 <0>        -0.0989
     29 H2          2.2509   -0.7946   -2.0803 H         1 <0>         0.0693
     30 H3          1.2975   -2.1927   -2.6321 H         1 <0>         0.0620
     31 H4          0.6587   -0.5439   -2.8356 H         1 <0>         0.0652
     32 H5          1.1130   -2.0085   -0.1979 H         1 <0>         0.0571
     33 H6          0.6045   -0.3082   -0.3349 H         1 <0>         0.0612
     34 H7         -5.1335   -1.8940    2.5135 H         1 <0>         0.1072
     35 H8         -5.0219   -0.5650    4.5831 H         1 <0>         0.1105
     36 H9         -2.7112    2.3936    2.5590 H         1 <0>         0.1096
     37 H10        -3.2898    1.8833   -0.3911 H         1 <0>         0.0704
     38 H11        -1.7052    1.7233    0.4035 H         1 <0>         0.0580
     39 H12        -2.3861    0.3543   -0.5077 H         1 <0>         0.0579
     40 H13        -2.9131    1.5160    5.5388 H         1 <0>         0.0584
     41 H14        -3.7243    2.8682    4.7132 H         1 <0>         0.0586
     42 H15        -4.6891    1.6337    5.5579 H         1 <0>         0.0600
     43 H16        -8.8411   -1.8919   -0.0521 H         1 <0>         0.2082
     44 H17        -5.8430    0.6688    0.0366 H         1 <0>         0.0647
     45 H18        -1.7398   -4.8925    1.0022 H         1 <0>         0.0693
     46 H19        -2.1816   -5.3915   -0.6483 H         1 <0>         0.0741
     47 H20        -1.0541   -4.0367   -0.3998 H         1 <0>         0.0625
@<TRIPOS>BOND
     1    1    2 1
     2    1   29 1
     3    1   30 1
     4    1   31 1
     5    2    3 1
     6    2   32 1
     7    2   33 1
     8    3    4 1
     9    4    5 2
    10    4    6 1
    11    6   11 1
    12    6    7 2
    13    7    8 1
    14    7   28 1
    15    8    9 2
    16    9   23 1
    17    9   10 1
    18   10   11 1
    19   10   21 1
    20   11   12 1
    21   11   13 1
    22   13   18 ar
    23   13   14 ar
    24   14   15 ar
    25   14   34 1
    26   15   16 ar
    27   15   35 1
    28   16   17 ar
    29   16   20 1
    30   17   18 ar
    31   17   36 1
    32   18   19 1
    33   19   37 1
    34   19   38 1
    35   19   39 1
    36   20   40 1
    37   20   41 1
    38   20   42 1
    39   21   22 2
    40   21   24 1
    41   22   23 1
    42   22   43 1
    43   24   25 2
    44   24   44 1
    45   25   26 1
    46   25   27 1
    47   28   45 1
    48   28   46 1
    49   28   47 1
@<TRIPOS>MOLECULE
ZINC47948974
   32    33     0     0     0
SMALL
USER_CHARGES

@<TRIPOS>ATOM
      1 C1         -0.0173    1.4248    0.0099 C.3       1 <0>         0.0203
      2 O1          0.0021   -0.0041    0.0020 O.3       1 <0>        -0.2662
      3 C2          0.6045   -0.6058   -1.0534 C.ar      1 <0>         0.1913
      4 C3          1.1724    0.1598   -2.0612 C.ar      1 <0>        -0.2546
      5 C4          1.7856   -0.4542   -3.1347 C.ar      1 <0>         0.0090
      6 C5          1.8394   -1.8367   -3.2160 C.ar      1 <0>        -0.6709
      7 C6          1.2813   -2.6137   -2.2253 C.ar      1 <0>         0.0498
      8 C7          0.6615   -2.0057   -1.1285 C.ar      1 <0>        -0.1937
      9 C8          0.0678   -2.8292   -0.0631 C.2       1 <0>         0.5282
     10 O2          0.1198   -4.0495   -0.1324 O.co2     1 <0>        -0.6911
     11 O3         -0.4776   -2.2935    0.8920 O.co2     1 <0>        -0.6782
     12 S1          2.6251   -2.6041   -4.5938 S.o2      1 <0>         2.6182
     13 O4          2.0642   -3.9046   -4.7087 O.2       1 <0>        -1.0257
     14 O5          2.5899   -1.6626   -5.6576 O.2       1 <0>        -1.0368
     15 N1          4.2194   -2.8097   -4.1963 N.2       1 <0>        -1.0632
     16 C9          5.0969   -3.4020   -5.1096 C.ar      1 <0>         0.2990
     17 C10         4.6341   -3.8131   -6.3527 C.ar      1 <0>        -0.2490
     18 C11         5.5030   -4.3975   -7.2533 C.ar      1 <0>        -0.0460
     19 C12         6.8340   -4.5742   -6.9182 C.ar      1 <0>        -0.1379
     20 C13         7.2987   -4.1662   -5.6804 C.ar      1 <0>        -0.0561
     21 C14         6.4352   -3.5752   -4.7774 C.ar      1 <0>        -0.0895
     22 Cl1         7.0201   -3.0564   -3.2274 Cl        1 <0>        -0.0790
     23 Cl2         7.9228   -5.3096   -8.0529 Cl        1 <0>        -0.1140
     24 H1          1.0053    1.8021    0.0021 H         1 <0>         0.0473
     25 H2         -0.5445    1.7859   -0.8732 H         1 <0>         0.0462
     26 H3         -0.5275    1.7763    0.9067 H         1 <0>         0.0915
     27 H4          1.1343    1.2377   -2.0061 H         1 <0>         0.1235
     28 H5          2.2262    0.1467   -3.9166 H         1 <0>         0.1295
     29 H6          1.3254   -3.6906   -2.2932 H         1 <0>         0.1461
     30 H7          3.5953   -3.6763   -6.6149 H         1 <0>         0.1141
     31 H8          5.1432   -4.7172   -8.2201 H         1 <0>         0.1159
     32 H9          8.3378   -4.3060   -5.4212 H         1 <0>         0.1221
@<TRIPOS>BOND
     1    1    2 1
     2    1   24 1
     3    1   25 1
     4    1   26 1
     5    2    3 1
     6    3    8 ar
     7    3    4 ar
     8    4    5 ar
     9    4   27 1
    10    5    6 ar
    11    5   28 1
    12    6    7 ar
    13    6   12 1
    14    7    8 ar
    15    7   29 1
    16    8    9 1
    17    9   10 2
    18    9   11 1
    19   12   13 2
    20   12   14 2
    21   12   15 1
    22   15   16 1
    23   16   21 ar
    24   16   17 ar
    25   17   18 ar
    26   17   30 1
    27   18   19 ar
    28   18   31 1
    29   19   20 ar
    30   19   23 1
    31   20   21 ar
    32   20   32 1
    33   21   22 1
@<TRIPOS>MOLECULE
ZINC16911727
   43    45     0     0     0
SMALL
USER_CHARGES

@<TRIPOS>ATOM
      1 C1         -1.5786    1.2831    0.0575 C.3       1 <0>        -0.0968
      2 C2         -1.2415   -0.1855    0.0363 C.ar      1 <0>        -0.1520
      3 C3         -0.6122   -0.7646    1.1230 C.ar      1 <0>        -0.1039
      4 C4         -0.3018   -2.1102    1.1069 C.ar      1 <0>        -0.1542
      5 C5         -0.6225   -2.8821   -0.0025 C.ar      1 <0>         0.1656
      6 C6         -1.2547   -2.2973   -1.0924 C.ar      1 <0>        -0.1455
      7 C7         -1.5673   -0.9523   -1.0675 C.ar      1 <0>        -0.1085
      8 N1         -0.3094   -4.2444   -0.0224 N.2       1 <0>        -0.5841
      9 C8         -0.1696   -4.9329    1.1549 C.2       1 <0>         0.4537
     10 N2         -0.4608   -4.5301    2.3817 N.2       1 <0>        -0.7146
     11 C9         -0.2791   -5.2936    3.4365 C.2       1 <0>         0.5292
     12 O1         -0.5519   -4.9109    4.5631 O.2       1 <0>        -0.5254
     13 C10         0.2747   -6.6440    3.1826 C.2       1 <0>        -0.2047
     14 C11         0.5670   -7.6421    4.0550 C.2       1 <0>         0.0181
     15 C12         0.4970   -7.3974    5.5004 C.ar      1 <0>        -0.1001
     16 C13         1.0080   -6.2107    6.0397 C.ar      1 <0>        -0.0080
     17 C14         0.9384   -5.9884    7.3973 C.ar      1 <0>        -0.1755
     18 C15         0.3654   -6.9340    8.2327 C.ar      1 <0>        -0.0726
     19 C16        -0.1426   -8.1098    7.7149 C.ar      1 <0>        -0.2234
     20 C17        -0.0884   -8.3496    6.3512 C.ar      1 <0>         0.1600
     21 O2         -0.5926   -9.5015    5.8408 O.3       1 <0>        -0.3180
     22 C18        -1.1724  -10.4224    6.7671 C.3       1 <0>         0.0833
     23 C19        -1.6826  -11.6516    6.0124 C.3       1 <0>        -0.1819
     24 C20        -2.2941  -12.6227    6.9892 C.2       1 <0>         0.4999
     25 O3         -2.3194  -12.3563    8.1787 O.co2     1 <0>        -0.6985
     26 O4         -2.7634  -13.6748    6.5900 O.co2     1 <0>        -0.6994
     27 S1          0.4422   -6.5924    1.4028 S.3       1 <0>        -0.1449
     28 H1         -2.5730    1.4216    0.4819 H         1 <0>         0.0553
     29 H2         -0.8469    1.8152    0.6654 H         1 <0>         0.0541
     30 H3         -1.5599    1.6749   -0.9595 H         1 <0>         0.0532
     31 H4         -0.3628   -0.1638    1.9851 H         1 <0>         0.1046
     32 H5          0.1900   -2.5618    1.9558 H         1 <0>         0.1361
     33 H6         -1.5054   -2.8946   -1.9566 H         1 <0>         0.1124
     34 H7         -2.0630   -0.4980   -1.9126 H         1 <0>         0.1071
     35 H8          0.8513   -8.6163    3.6854 H         1 <0>         0.1315
     36 H9          1.4561   -5.4712    5.3926 H         1 <0>         0.1235
     37 H10         1.3328   -5.0728    7.8128 H         1 <0>         0.1158
     38 H11         0.3159   -6.7507    9.2959 H         1 <0>         0.1167
     39 H12        -0.5871   -8.8412    8.3736 H         1 <0>         0.1311
     40 H13        -0.4202  -10.7286    7.4940 H         1 <0>         0.0615
     41 H14        -2.0034   -9.9427    7.2842 H         1 <0>         0.0615
     42 H15        -2.4348  -11.3454    5.2854 H         1 <0>         0.0692
     43 H16        -0.8516  -12.1313    5.4952 H         1 <0>         0.0684
@<TRIPOS>BOND
     1    1    2 1
     2    1   28 1
     3    1   29 1
     4    1   30 1
     5    2    7 ar
     6    2    3 ar
     7    3    4 ar
     8    3   31 1
     9    4    5 ar
    10    4   32 1
    11    5    6 ar
    12    5    8 1
    13    6    7 ar
    14    6   33 1
    15    7   34 1
    16    8    9 1
    17    9   27 1
    18    9   10 2
    19   10   11 1
    20   11   12 2
    21   11   13 1
    22   13   14 2
    23   13   27 1
    24   14   15 1
    25   14   35 1
    26   15   20 ar
    27   15   16 ar
    28   16   17 ar
    29   16   36 1
    30   17   18 ar
    31   17   37 1
    32   18   19 ar
    33   18   38 1
    34   19   20 ar
    35   19   39 1
    36   20   21 1
    37   21   22 1
    38   22   23 1
    39   22   40 1
    40   22   41 1
    41   23   24 1
    42   23   42 1
    43   23   43 1
    44   24   25 2
    45   24   26 1
@<TRIPOS>MOLECULE
ZINC27105376
   43    44     0     0     0
SMALL
USER_CHARGES

@<TRIPOS>ATOM
      1 C1          0.1015    2.9312    1.2621 C.3       1 <0>        -0.1664
      2 C2          0.1625    1.4859    0.7637 C.3       1 <0>         0.0662
      3 C3          0.9545    1.4305   -0.5442 C.3       1 <0>        -0.1451
      4 O1          0.8058    0.6704    1.7450 O.3       1 <0>        -0.3303
      5 C4          0.0179    0.0993    2.6782 C.2       1 <0>         0.4743
      6 O2         -1.1822    0.2889    2.6588 O.2       1 <0>        -0.5312
      7 C5          0.6120   -0.7546    3.7215 C.2       1 <0>         0.2458
      8 C6         -0.1795   -1.3283    4.6589 C.2       1 <0>        -0.3684
      9 C7          0.4116   -2.1779    5.6969 C.2       1 <0>         0.2803
     10 N1          1.7113   -2.3832    5.7180 N.2       1 <0>        -0.4735
     11 C8          2.2791   -3.0492    6.7626 C.ar      1 <0>         0.1147
     12 C9          2.0842   -2.5965    8.0735 C.ar      1 <0>        -0.1692
     13 C10         2.6583   -3.2705    9.1317 C.ar      1 <0>        -0.1220
     14 C11         3.4289   -4.3947    8.9078 C.ar      1 <0>        -0.1253
     15 C12         3.6334   -4.8593    7.6048 C.ar      1 <0>        -0.1217
     16 C13         3.0523   -4.1886    6.5297 C.ar      1 <0>        -0.1044
     17 C14         4.4580   -6.0602    7.3689 C.2       1 <0>         0.5239
     18 O3          4.9633   -6.6502    8.3133 O.co2     1 <0>        -0.7001
     19 O4          4.6360   -6.4653    6.2288 O.co2     1 <0>        -0.6905
     20 C15        -0.4536   -2.8050    6.7217 C.ar      1 <0>        -0.0661
     21 C16        -1.5247   -2.0943    7.2644 C.ar      1 <0>        -0.0989
     22 C17        -2.3276   -2.6845    8.2186 C.ar      1 <0>        -0.1346
     23 C18        -2.0721   -3.9781    8.6379 C.ar      1 <0>        -0.1294
     24 C19        -1.0113   -4.6880    8.1039 C.ar      1 <0>        -0.1218
     25 C20        -0.2048   -4.1112    7.1445 C.ar      1 <0>        -0.0869
     26 O5          1.9517   -0.9663    3.7432 O.3       1 <0>        -0.6031
     27 H1          1.1129    3.2992    1.4340 H         1 <0>         0.0628
     28 H2         -0.3892    3.5533    0.5136 H         1 <0>         0.0631
     29 H3         -0.4628    2.9707    2.1939 H         1 <0>         0.0594
     30 H4         -0.8490    1.1179    0.5918 H         1 <0>         0.0748
     31 H5          1.9660    1.7986   -0.3723 H         1 <0>         0.0650
     32 H6          0.9980    0.4009   -0.8993 H         1 <0>         0.0623
     33 H7          0.4638    2.0526   -1.2927 H         1 <0>         0.0665
     34 H8         -1.2461   -1.1598    4.6416 H         1 <0>         0.1021
     35 H9          1.4835   -1.7178    8.2564 H         1 <0>         0.1014
     36 H10         2.5047   -2.9169   10.1406 H         1 <0>         0.1010
     37 H11         3.8751   -4.9164    9.7416 H         1 <0>         0.1138
     38 H12         3.2030   -4.5456    5.5216 H         1 <0>         0.1225
     39 H13        -1.7247   -1.0843    6.9385 H         1 <0>         0.1236
     40 H14        -3.1569   -2.1355    8.6395 H         1 <0>         0.1127
     41 H15        -2.7033   -4.4356    9.3854 H         1 <0>         0.1108
     42 H16        -0.8167   -5.6971    8.4358 H         1 <0>         0.1163
     43 H17         0.6202   -4.6679    6.7252 H         1 <0>         0.1255
@<TRIPOS>BOND
     1    1    2 1
     2    1   27 1
     3    1   28 1
     4    1   29 1
     5    2    3 1
     6    2    4 1
     7    2   30 1
     8    3   31 1
     9    3   32 1
    10    3   33 1
    11    4    5 1
    12    5    6 2
    13    5    7 1
    14    7    8 2
    15    7   26 1
    16    8    9 1
    17    8   34 1
    18    9   10 2
    19    9   20 1
    20   10   11 1
    21   11   16 ar
    22   11   12 ar
    23   12   13 ar
    24   12   35 1
    25   13   14 ar
    26   13   36 1
    27   14   15 ar
    28   14   37 1
    29   15   16 ar
    30   15   17 1
    31   16   38 1
    32   17   18 2
    33   17   19 1
    34   20   25 ar
    35   20   21 ar
    36   21   22 ar
    37   21   39 1
    38   22   23 ar
    39   22   40 1
    40   23   24 ar
    41   23   41 1
    42   24   25 ar
    43   24   42 1
    44   25   43 1
@<TRIPOS>MOLECULE
ZINC16905947
   38    40     0     0     0
SMALL
USER_CHARGES
2-[(E)-[2-[(4-acetylphenyl)amino]-4-oxo-thiazol-5-ylidene]methyl]benzoic acid
@<TRIPOS>ATOM
      1 C1         -1.5747    2.6750    0.7751 C.3       1 <0>        -0.2014
      2 C2         -1.9202    1.2394    0.4741 C.2       1 <0>         0.3999
      3 O1         -2.0066    0.8648   -0.6764 O.2       1 <0>        -0.4913
      4 C3         -2.1523    0.2941    1.5733 C.ar      1 <0>        -0.2531
      5 C4         -2.1639    0.7472    2.8987 C.ar      1 <0>        -0.0554
      6 C5         -2.3855   -0.1348    3.9178 C.ar      1 <0>        -0.1707
      7 C6         -2.5886   -1.4846    3.6415 C.ar      1 <0>         0.2202
      8 C7         -2.5725   -1.9403    2.3256 C.ar      1 <0>        -0.1801
      9 C8         -2.3570   -1.0644    1.3000 C.ar      1 <0>        -0.0357
     10 N1         -2.8076   -2.3806    4.6833 N.2       1 <0>        -0.5987
     11 C9         -2.3857   -3.6796    4.5700 C.2       1 <0>         0.4619
     12 N2         -1.8146   -4.2697    3.5321 N.2       1 <0>        -0.7158
     13 C10        -1.4531   -5.5333    3.5490 C.2       1 <0>         0.5344
     14 O2         -0.9270   -6.0661    2.5859 O.2       1 <0>        -0.5192
     15 C11        -1.7210   -6.2758    4.8076 C.2       1 <0>        -0.2390
     16 C12        -1.4655   -7.5694    5.1245 C.2       1 <0>         0.0608
     17 C13        -0.6952   -8.4130    4.2018 C.ar      1 <0>        -0.0401
     18 C14         0.4330   -7.9013    3.5554 C.ar      1 <0>        -0.0587
     19 C15         1.1526   -8.6992    2.6901 C.ar      1 <0>        -0.1337
     20 C16         0.7654  -10.0087    2.4551 C.ar      1 <0>        -0.1332
     21 C17        -0.3459  -10.5347    3.0835 C.ar      1 <0>        -0.0944
     22 C18        -1.0855   -9.7488    3.9656 C.ar      1 <0>        -0.0977
     23 C19        -2.2707  -10.3076    4.6436 C.2       1 <0>         0.4911
     24 O3         -2.9608   -9.5957    5.3458 O.co2     1 <0>        -0.6203
     25 O4         -2.5879  -11.6074    4.4841 O.co2     1 <0>        -0.7605
     26 S1         -2.4673   -4.9812    5.7903 S.3       1 <0>        -0.1340
     27 H1         -1.5426    2.8237    1.8645 H         1 <0>         0.0825
     28 H2         -2.3377    3.3353    0.3372 H         1 <0>         0.0841
     29 H3         -0.5916    2.9138    0.3433 H         1 <0>         0.0848
     30 H4         -2.0022    1.7930    3.1141 H         1 <0>         0.1180
     31 H5         -2.3988    0.2143    4.9397 H         1 <0>         0.1183
     32 H6         -2.7305   -2.9879    2.1159 H         1 <0>         0.1431
     33 H7         -2.3447   -1.4187    0.2798 H         1 <0>         0.1146
     34 H8         -1.8353   -7.9867    6.0727 H         1 <0>         0.1533
     35 H9          0.7418   -6.8818    3.7334 H         1 <0>         0.1179
     36 H10         2.0238   -8.3002    2.1921 H         1 <0>         0.1110
     37 H11         1.3375  -10.6228    1.7753 H         1 <0>         0.1104
     38 H12        -0.6399  -11.5566    2.8943 H         1 <0>         0.1267
@<TRIPOS>BOND
     1    1    2 1
     2    1   27 1
     3    1   28 1
     4    1   29 1
     5    2    3 2
     6    2    4 1
     7    4    9 ar
     8    4    5 ar
     9    5    6 ar
    10    5   30 1
    11    6    7 ar
    12    6   31 1
    13    7    8 ar
    14    7   10 1
    15    8    9 ar
    16    8   32 1
    17    9   33 1
    18   10   11 1
    19   11   26 1
    20   11   12 2
    21   12   13 1
    22   13   14 2
    23   13   15 1
    24   15   16 2
    25   15   26 1
    26   16   17 1
    27   16   34 1
    28   17   22 ar
    29   17   18 ar
    30   18   19 ar
    31   18   35 1
    32   19   20 ar
    33   19   36 1
    34   20   21 ar
    35   20   37 1
    36   21   22 ar
    37   21   38 1
    38   22   23 1
    39   23   24 2
    40   23   25 1
@<TRIPOS>MOLECULE
ZINC36048181
   48    50     0     0     0
SMALL
USER_CHARGES

@<TRIPOS>ATOM
      1 C1          1.1218   -3.7045   -0.3851 C.3       1 <0>        -0.1711
      2 C2          2.3247   -3.3666    0.4979 C.3       1 <0>         0.1140
      3 N1          1.9949   -2.2268    1.3571 N.am      1 <0>        -0.6186
      4 C3          1.3967   -2.4520    2.6753 C.3       1 <0>         0.1136
      5 C4          2.5047   -2.5920    3.7210 C.3       1 <0>        -0.1633
      6 C5          2.2419   -0.9709    0.9349 C.2       1 <0>         0.6172
      7 O1          2.0622   -0.0296    1.6861 O.2       1 <0>        -0.5431
      8 C6          2.7102   -0.7462   -0.3819 C.2       1 <0>        -0.3969
      9 C7          4.0221   -0.9281   -0.7022 C.2       1 <0>         0.2269
     10 N2          4.4570   -0.7155   -1.9414 N.2       1 <0>        -0.6185
     11 C8          3.7079   -0.3278   -2.9364 C.2       1 <0>         0.3152
     12 N3          2.3610   -0.0884   -2.8259 N.pl3     1 <0>        -0.5096
     13 C9          1.7688   -0.3023   -1.4802 C.3       1 <0>         0.2777
     14 H1          0.9810   -1.0502   -1.5706 H         1 <0>         0.0560
     15 C10         1.1277    0.9914   -1.0485 C.ar      1 <0>        -0.0556
     16 C11         1.8011    2.1868   -1.2180 C.ar      1 <0>        -0.0808
     17 C12         1.2131    3.3735   -0.8220 C.ar      1 <0>        -0.1214
     18 C13        -0.0485    3.3650   -0.2570 C.ar      1 <0>        -0.1296
     19 C14        -0.7222    2.1697   -0.0883 C.ar      1 <0>        -0.1198
     20 C15        -0.1360    0.9835   -0.4882 C.ar      1 <0>        -0.0978
     21 C16         1.7257    0.3116   -3.9690 C.2       1 <0>         0.2296
     22 C17         2.5457    0.4397   -5.1765 C.2       1 <0>        -0.5225
     23 S1          4.0792    0.0094   -4.6426 S.3       1 <0>         0.1378
     24 C18         0.3737    0.5818   -3.9846 C.2       1 <0>        -0.4464
     25 C19        -0.2817    0.8434   -5.2119 C.2       1 <0>         0.4934
     26 O2          0.3769    0.7010   -6.3636 O.co2     1 <0>        -0.7474
     27 O3         -1.5581    1.2324   -5.2169 O.co2     1 <0>        -0.7902
     28 C20         4.9925   -1.3753    0.3605 C.3       1 <0>        -0.0952
     29 H2          0.8165   -2.8165   -0.9386 H         1 <0>         0.0648
     30 H3          1.3957   -4.4931   -1.0860 H         1 <0>         0.0609
     31 H4          0.2963   -4.0446    0.2401 H         1 <0>         0.0496
     32 H5          2.5742   -4.2282    1.1172 H         1 <0>         0.0653
     33 H6          3.1775   -3.1124   -0.1315 H         1 <0>         0.0842
     34 H7          0.7579   -1.6074    2.9335 H         1 <0>         0.0769
     35 H8          0.8010   -3.3645    2.6528 H         1 <0>         0.0662
     36 H9          3.1434   -3.4366    3.4628 H         1 <0>         0.0509
     37 H10         3.1004   -1.6794    3.7435 H         1 <0>         0.0593
     38 H11         2.0596   -2.7595    4.7018 H         1 <0>         0.0558
     39 H12         2.7867    2.1934   -1.6594 H         1 <0>         0.1047
     40 H13         1.7395    4.3073   -0.9538 H         1 <0>         0.1104
     41 H14        -0.5076    4.2920    0.0531 H         1 <0>         0.1097
     42 H15        -1.7077    2.1630    0.3534 H         1 <0>         0.1105
     43 H16        -0.6639    0.0500   -0.3599 H         1 <0>         0.1056
     44 H17         2.2390    0.7381   -6.1681 H         1 <0>         0.2061
     45 H18        -0.1852    0.5939   -3.0606 H         1 <0>         0.0692
     46 H19         5.0945   -2.4600    0.3262 H         1 <0>         0.0666
     47 H20         5.9637   -0.9133    0.1833 H         1 <0>         0.0698
     48 H21         4.6212   -1.0761    1.3407 H         1 <0>         0.0604
@<TRIPOS>BOND
     1    1    2 1
     2    1   29 1
     3    1   30 1
     4    1   31 1
     5    2    3 1
     6    2   32 1
     7    2   33 1
     8    3    4 1
     9    3    6 am
    10    4    5 1
    11    4   34 1
    12    4   35 1
    13    5   36 1
    14    5   37 1
    15    5   38 1
    16    6    7 2
    17    6    8 1
    18    8   13 1
    19    8    9 2
    20    9   10 1
    21    9   28 1
    22   10   11 2
    23   11   23 1
    24   11   12 1
    25   12   13 1
    26   12   21 1
    27   13   14 1
    28   13   15 1
    29   15   20 ar
    30   15   16 ar
    31   16   17 ar
    32   16   39 1
    33   17   18 ar
    34   17   40 1
    35   18   19 ar
    36   18   41 1
    37   19   20 ar
    38   19   42 1
    39   20   43 1
    40   21   22 2
    41   21   24 1
    42   22   23 1
    43   22   44 1
    44   24   25 2
    45   24   45 1
    46   25   26 1
    47   25   27 1
    48   28   46 1
    49   28   47 1
    50   28   48 1
@<TRIPOS>MOLECULE
ZINC42794436
   32    33     0     0     0
SMALL
USER_CHARGES

@<TRIPOS>ATOM
      1 C1         -0.0173    1.4248    0.0099 C.3       1 <0>         0.0308
      2 O1          0.0021   -0.0041    0.0020 O.3       1 <0>        -0.2947
      3 C2          0.6247   -0.6173    1.0397 C.ar      1 <0>         0.2156
      4 C3          1.2016    0.1446    2.0502 C.ar      1 <0>        -0.2524
      5 C4          1.8346   -0.4731    3.1044 C.ar      1 <0>        -0.0078
      6 C5          1.8970   -1.8699    3.1590 C.ar      1 <0>        -0.1977
      7 C6          1.3149   -2.6320    2.1406 C.ar      1 <0>         0.0408
      8 C7          0.6793   -2.0056    1.0926 C.ar      1 <0>        -0.6688
      9 S1         -0.0605   -2.9644   -0.1872 S.o2      1 <0>         2.6269
     10 O2          0.3946   -2.4190   -1.4180 O.2       1 <0>        -1.0227
     11 O3          0.1366   -4.3278    0.1611 O.2       1 <0>        -1.0276
     12 N1         -1.6925   -2.6907   -0.1230 N.2       1 <0>        -1.0719
     13 C8         -2.5438   -3.3265   -1.0305 C.ar      1 <0>         0.3151
     14 C9         -2.0228   -4.1928   -1.9835 C.ar      1 <0>        -0.2643
     15 C10        -2.8655   -4.8208   -2.8795 C.ar      1 <0>        -0.0266
     16 C11        -4.2284   -4.5881   -2.8299 C.ar      1 <0>        -0.1836
     17 C12        -4.7519   -3.7242   -1.8811 C.ar      1 <0>         0.1465
     18 C13        -3.9123   -3.0977   -0.9776 C.ar      1 <0>        -0.2129
     19 F1         -6.0830   -3.4982   -1.8348 F         1 <0>        -0.1475
     20 Cl1        -5.2843   -5.3789   -3.9583 Cl        1 <0>        -0.1067
     21 C14         2.5736   -2.5354    4.2846 C.2       1 <0>         0.5285
     22 O4          3.0823   -1.8670    5.1741 O.co2     1 <0>        -0.6987
     23 O5          2.6270   -3.7567    4.3305 O.co2     1 <0>        -0.6862
     24 H1          1.0053    1.8021    0.0021 H         1 <0>         0.0502
     25 H2         -0.5445    1.7859   -0.8732 H         1 <0>         0.0957
     26 H3         -0.5275    1.7763    0.9067 H         1 <0>         0.0526
     27 H4          1.1529    1.2226    2.0072 H         1 <0>         0.1240
     28 H5          2.2829    0.1194    3.8883 H         1 <0>         0.1304
     29 H6          1.3610   -3.7104    2.1784 H         1 <0>         0.1491
     30 H7         -0.9590   -4.3748   -2.0238 H         1 <0>         0.1117
     31 H8         -2.4600   -5.4942   -3.6201 H         1 <0>         0.1203
     32 H9         -4.3202   -2.4282   -0.2348 H         1 <0>         0.1317
@<TRIPOS>BOND
     1    1    2 1
     2    1   24 1
     3    1   25 1
     4    1   26 1
     5    2    3 1
     6    3    8 ar
     7    3    4 ar
     8    4    5 ar
     9    4   27 1
    10    5    6 ar
    11    5   28 1
    12    6    7 ar
    13    6   21 1
    14    7    8 ar
    15    7   29 1
    16    8    9 1
    17    9   10 2
    18    9   11 2
    19    9   12 1
    20   12   13 1
    21   13   18 ar
    22   13   14 ar
    23   14   15 ar
    24   14   30 1
    25   15   16 ar
    26   15   31 1
    27   16   17 ar
    28   16   20 1
    29   17   18 ar
    30   17   19 1
    31   18   32 1
    32   21   22 2
    33   21   23 1
@<TRIPOS>MOLECULE
ZINC39724232
   31    32     0     0     0
SMALL
USER_CHARGES

@<TRIPOS>ATOM
      1 C1         -0.0167    1.3786    0.0096 C.ar      1 <0>        -0.0321
      2 C2          1.1689    2.0869    0.0021 C.ar      1 <0>        -0.1847
      3 C3          2.3811    1.4088   -0.0131 C.ar      1 <0>         0.3095
      4 C4          2.3964    0.0198   -0.0206 C.ar      1 <0>        -0.2685
      5 C5          1.2071   -0.6823   -0.0130 C.ar      1 <0>        -0.0143
      6 C6          0.0021   -0.0041    0.0020 C.ar      1 <0>        -0.3095
      7 C7         -1.2936   -0.7736    0.0107 C.3       1 <0>         0.5184
      8 F1         -1.7076   -1.0046   -1.3055 F         1 <0>        -0.1926
      9 F2         -1.1049   -1.9973    0.6618 F         1 <0>        -0.1905
     10 F3         -2.2712   -0.0331    0.6839 F         1 <0>        -0.1906
     11 N1          3.5820    2.1220   -0.0212 N.2       1 <0>        -1.0778
     12 S1          5.0262    1.3117   -0.0392 S.o2      1 <0>         2.6166
     13 O1          5.1229    0.6264    1.2018 O.2       1 <0>        -1.0222
     14 O2          5.0987    0.6388   -1.2887 O.2       1 <0>        -1.0322
     15 C8          6.3041    2.5247   -0.0456 C.ar      1 <0>        -0.6515
     16 C9          6.7889    3.0100   -1.2488 C.ar      1 <0>        -0.0030
     17 C10         7.7911    3.9615   -1.2657 C.ar      1 <0>        -0.2023
     18 C11         8.3176    4.4364   -0.0781 C.ar      1 <0>         0.1679
     19 C12         7.8314    3.9501    1.1411 C.ar      1 <0>        -0.1989
     20 C13         6.8136    2.9914    1.1466 C.ar      1 <0>         0.0418
     21 C14         8.3859    4.4492    2.4118 C.2       1 <0>         0.5258
     22 O3          7.9586    4.0220    3.4753 O.co2     1 <0>        -0.6802
     23 O4          9.2735    5.2907    2.4031 O.co2     1 <0>        -0.6817
     24 F4          9.2979    5.3659   -0.0949 F         1 <0>        -0.1208
     25 H1         -0.9595    1.9052    0.0260 H         1 <0>         0.1138
     26 H2          1.1535    3.1668    0.0077 H         1 <0>         0.1226
     27 H3          3.3371   -0.5105   -0.0328 H         1 <0>         0.1072
     28 H4          1.2182   -1.7622   -0.0189 H         1 <0>         0.1115
     29 H5          6.3817    2.6424   -2.1792 H         1 <0>         0.1378
     30 H6          8.1641    4.3347   -2.2080 H         1 <0>         0.1312
     31 H7          6.4307    2.6141    2.0834 H         1 <0>         0.1493
@<TRIPOS>BOND
     1    1    6 ar
     2    1    2 ar
     3    1   25 1
     4    2    3 ar
     5    2   26 1
     6    3    4 ar
     7    3   11 1
     8    4    5 ar
     9    4   27 1
    10    5    6 ar
    11    5   28 1
    12    6    7 1
    13    7    8 1
    14    7    9 1
    15    7   10 1
    16   11   12 1
    17   12   13 2
    18   12   14 2
    19   12   15 1
    20   15   20 ar
    21   15   16 ar
    22   16   17 ar
    23   16   29 1
    24   17   18 ar
    25   17   30 1
    26   18   19 ar
    27   18   24 1
    28   19   20 ar
    29   19   21 1
    30   20   31 1
    31   21   22 2
    32   21   23 1
@<TRIPOS>MOLECULE
ZINC63879032
   31    32     0     0     0
SMALL
USER_CHARGES

@<TRIPOS>ATOM
      1 C1          0.1037    0.9165   -0.3273 C.3       1 <0>        -0.0925
      2 C2          0.2672   -0.5407    0.0200 C.ar      1 <0>        -0.1748
      3 C3          0.3642   -1.4815   -0.9845 C.ar      1 <0>        -0.1349
      4 C4          0.5151   -2.8265   -0.6762 C.ar      1 <0>        -0.0045
      5 C5          0.5692   -3.2375    0.6388 C.ar      1 <0>        -0.1068
      6 C6          0.4721   -2.2951    1.6684 C.ar      1 <0>        -0.1476
      7 C7          0.3257   -0.9341    1.3510 C.ar      1 <0>         0.2760
      8 N1          0.2339    0.0123    2.3628 N.2       1 <0>        -1.0549
      9 S1          1.4168    1.1583    2.5345 S.o2      1 <0>         2.5847
     10 O1          2.6500    0.4584    2.6273 O.2       1 <0>        -1.0276
     11 O2          1.1737    2.1449    1.5411 O.2       1 <0>        -1.0266
     12 C8          1.1628    1.9398    4.0931 C.ar      1 <0>        -0.6188
     13 C9          2.1102    1.8131    5.0919 C.ar      1 <0>         0.0211
     14 C10         1.9134    2.4251    6.3154 C.ar      1 <0>        -0.1629
     15 C11         0.7665    3.1665    6.5430 C.ar      1 <0>         0.1204
     16 C12        -0.1844    3.2947    5.5431 C.ar      1 <0>        -0.0009
     17 C13         0.0176    2.6848    4.3148 C.ar      1 <0>         0.2031
     18 F1         -0.9051    2.8133    3.3364 F         1 <0>        -0.0956
     19 F2         -1.3044    4.0174    5.7635 F         1 <0>        -0.1253
     20 F3          0.5743    3.7642    7.7393 F         1 <0>        -0.1267
     21 C14         0.5285   -2.7254    3.0733 C.2       1 <0>         0.5296
     22 O3          0.7541   -3.8968    3.3458 O.co2     1 <0>        -0.7311
     23 O4          0.3497   -1.9122    3.9699 O.co2     1 <0>        -0.6489
     24 F4          0.6089   -3.7374   -1.6696 F         1 <0>        -0.1726
     25 H1          1.0856    1.3812   -0.4166 H         1 <0>         0.0622
     26 H2         -0.4285    1.0069   -1.2742 H         1 <0>         0.0320
     27 H3         -0.4644    1.4156    0.4578 H         1 <0>         0.0833
     28 H4          0.3222   -1.1695   -2.0176 H         1 <0>         0.1039
     29 H5          0.6859   -4.2852    0.8738 H         1 <0>         0.1191
     30 H6          3.0053    1.2348    4.9160 H         1 <0>         0.1645
     31 H7          2.6545    2.3246    7.0945 H         1 <0>         0.1533
@<TRIPOS>BOND
     1    1    2 1
     2    1   25 1
     3    1   26 1
     4    1   27 1
     5    2    7 ar
     6    2    3 ar
     7    3    4 ar
     8    3   28 1
     9    4    5 ar
    10    4   24 1
    11    5    6 ar
    12    5   29 1
    13    6    7 ar
    14    6   21 1
    15    7    8 1
    16    8    9 1
    17    9   10 2
    18    9   11 2
    19    9   12 1
    20   12   17 ar
    21   12   13 ar
    22   13   14 ar
    23   13   30 1
    24   14   15 ar
    25   14   31 1
    26   15   16 ar
    27   15   20 1
    28   16   17 ar
    29   16   19 1
    30   17   18 1
    31   21   22 2
    32   21   23 1
@<TRIPOS>MOLECULE
ZINC23104976
   41    43     0     0     0
SMALL
USER_CHARGES
1-[2-[[5-[2-(2,5-dioxopyrrolidin-1-yl)ethylsulfanyl]-1,3,4-thiadiazol-2-yl]sulfanyl]ethyl]pyrrolidine-2,5-dione
@<TRIPOS>ATOM
      1 C1         -3.5856    7.4298   -0.6926 C.3       1 <0>        -0.1611
      2 C2         -3.5702    7.4215    0.8495 C.3       1 <0>        -0.1572
      3 C3         -2.2098    6.8518    1.1876 C.2       1 <0>         0.5298
      4 O1         -1.7826    6.6712    2.3076 O.2       1 <0>        -0.4733
      5 N1         -1.5527    6.5782    0.0536 N.am      1 <0>        -0.5717
      6 C4         -2.2300    6.8693   -1.0639 C.2       1 <0>         0.5231
      7 O2         -1.8229    6.7069   -2.1941 O.2       1 <0>        -0.4751
      8 C5         -0.2013    6.0127    0.0371 C.3       1 <0>         0.1124
      9 C6         -0.2878    4.4852    0.0297 C.3       1 <0>        -0.1418
     10 S1          1.3855    3.7850    0.0092 S.3       1 <0>         0.0843
     11 C7          1.1187    2.0433    0.0024 C.2       1 <0>         0.0513
     12 N2         -0.0166    1.3715    0.0096 N.2       1 <0>        -0.2991
     13 N3          0.0021   -0.0041    0.0020 N.2       1 <0>        -0.2991
     14 C8          1.1552   -0.6447   -0.0124 C.2       1 <0>         0.0513
     15 S2          2.3133    0.7153   -0.0162 S.3       1 <0>         0.0800
     16 S3          1.4691   -2.3785   -0.0252 S.3       1 <0>         0.0843
     17 C9         -0.1846   -3.1240   -0.0132 C.3       1 <0>        -0.1418
     18 C10        -0.0568   -4.6486   -0.0230 C.3       1 <0>         0.1124
     19 N4         -1.3923   -5.2507   -0.0133 N.am      1 <0>        -0.5716
     20 C11        -2.0394   -5.5599    1.1172 C.2       1 <0>         0.5230
     21 O3         -1.6147   -5.3864    2.2393 O.2       1 <0>        -0.4751
     22 C12        -3.3862   -6.1573    0.7723 C.3       1 <0>        -0.1611
     23 C13        -3.4013   -6.1486   -0.7699 C.3       1 <0>        -0.1572
     24 C14        -2.0638   -5.5421   -1.1342 C.2       1 <0>         0.5298
     25 O4         -1.6638   -5.3501   -2.2624 O.2       1 <0>        -0.4734
     26 H1         -3.6880    8.4447   -1.1043 H         1 <0>         0.1250
     27 H2         -4.3749    6.7849   -1.1064 H         1 <0>         0.1242
     28 H3         -3.6981    8.4482    1.2230 H         1 <0>         0.1267
     29 H4         -4.3916    6.7912    1.2210 H         1 <0>         0.1259
     30 H5          0.3281    6.3544   -0.8645 H         1 <0>         0.1107
     31 H6          0.3461    6.3447    0.9316 H         1 <0>         0.1108
     32 H7         -0.8173    4.1436    0.9314 H         1 <0>         0.1078
     33 H8         -0.8352    4.1533   -0.8648 H         1 <0>         0.1076
     34 H9         -0.7231   -2.8070    0.8921 H         1 <0>         0.1075
     35 H10        -0.7408   -2.7969   -0.9041 H         1 <0>         0.1078
     36 H11         0.4817   -4.9656   -0.9283 H         1 <0>         0.1108
     37 H12         0.4994   -4.9757    0.8679 H         1 <0>         0.1108
     38 H13        -3.4527   -7.1746    1.1854 H         1 <0>         0.1250
     39 H14        -4.1845   -5.5343    1.2018 H         1 <0>         0.1241
     40 H15        -3.5086   -7.1784   -1.1413 H         1 <0>         0.1267
     41 H16        -4.2467   -5.5409   -1.1249 H         1 <0>         0.1259
@<TRIPOS>BOND
     1    1    6 1
     2    1    2 1
     3    1   26 1
     4    1   27 1
     5    2    3 1
     6    2   28 1
     7    2   29 1
     8    3    4 2
     9    3    5 am
    10    5    6 am
    11    5    8 1
    12    6    7 2
    13    8    9 1
    14    8   30 1
    15    8   31 1
    16    9   10 1
    17    9   32 1
    18    9   33 1
    19   10   11 1
    20   11   15 1
    21   11   12 2
    22   12   13 1
    23   13   14 2
    24   14   15 1
    25   14   16 1
    26   16   17 1
    27   17   18 1
    28   17   34 1
    29   17   35 1
    30   18   19 1
    31   18   36 1
    32   18   37 1
    33   19   24 am
    34   19   20 am
    35   20   21 2
    36   20   22 1
    37   22   23 1
    38   22   38 1
    39   22   39 1
    40   23   24 1
    41   23   40 1
    42   23   41 1
    43   24   25 2
@<TRIPOS>MOLECULE
ZINC39573072
   43    43     0     0     0
SMALL
USER_CHARGES

@<TRIPOS>ATOM
      1 C1         -0.0187    1.5258    0.0104 C.3       1 <0>        -0.1485
      2 C2          0.0021   -0.0041    0.0020 C.3       1 <0>        -0.1384
      3 C3          0.7182   -0.4975   -1.2568 C.3       1 <0>         0.1039
      4 N1          0.7381   -1.9623   -1.2648 N.am      1 <0>        -0.3281
      5 C4         -0.2744   -2.6275   -1.8517 C.2       1 <0>         0.4789
      6 O1         -1.1937   -2.0147   -2.3684 O.2       1 <0>        -0.5101
      7 C5         -0.2649   -4.0402   -1.8655 C.2       1 <0>        -0.1848
      8 C6          0.7853   -4.6776   -1.2749 C.2       1 <0>        -0.0323
      9 C7          1.8018   -3.8882   -0.6840 C.2       1 <0>         0.0190
     10 N2          1.7233   -2.5764   -0.7166 N.2       1 <0>        -0.1345
     11 C8          2.9567   -4.5410   -0.0333 C.2       1 <0>         0.5465
     12 O2          3.0332   -5.7530   -0.0057 O.2       1 <0>        -0.4879
     13 O3          3.9249   -3.7920    0.5294 O.3       1 <0>        -0.3077
     14 C9          5.0119   -4.4895    1.1408 C.3       1 <0>         0.0457
     15 C10         5.9893   -3.4948    1.7121 C.2       1 <0>         0.5168
     16 O4          5.7760   -2.3056    1.6060 O.2       1 <0>        -0.5120
     17 N3          7.1004   -3.9267    2.3408 N.am      1 <0>        -0.7189
     18 C11         8.0506   -2.9597    2.8961 C.3       1 <0>         0.1488
     19 H1          7.5078   -2.0944    3.2764 H         1 <0>         0.1032
     20 C12         9.0212   -2.5121    1.8014 C.3       1 <0>        -0.1618
     21 C13         8.8341   -3.6120    4.0369 C.3       1 <0>         0.0501
     22 O5          9.6362   -4.6745    3.5172 O.3       1 <0>        -0.3888
     23 C14        10.4125   -5.3538    4.5061 C.3       1 <0>         0.0305
     24 H2          1.0039    1.9031    0.0027 H         1 <0>         0.0617
     25 H3         -0.5459    1.8868   -0.8726 H         1 <0>         0.0607
     26 H4         -0.5289    1.8773    0.9072 H         1 <0>         0.0646
     27 H5          0.5293   -0.3651    0.8851 H         1 <0>         0.0737
     28 H6         -1.0205   -0.3814    0.0098 H         1 <0>         0.0708
     29 H7          0.1910   -0.1364   -2.1398 H         1 <0>         0.1127
     30 H8          1.7408   -0.1202   -1.2645 H         1 <0>         0.1089
     31 H9         -1.0651   -4.5978   -2.3294 H         1 <0>         0.1752
     32 H10         0.8406   -5.7561   -1.2576 H         1 <0>         0.1675
     33 H11         4.6318   -5.1256    1.9402 H         1 <0>         0.1042
     34 H12         5.5143   -5.1051    0.3946 H         1 <0>         0.1050
     35 H13         7.2711   -4.8778    2.4256 H         1 <0>         0.4074
     36 H14         9.5640   -3.3774    1.4210 H         1 <0>         0.0684
     37 H15         8.4630   -2.0473    0.9886 H         1 <0>         0.0613
     38 H16         9.7281   -1.7926    2.2145 H         1 <0>         0.0663
     39 H17         9.4770   -2.8684    4.5079 H         1 <0>         0.0687
     40 H18         8.1377   -4.0101    4.7749 H         1 <0>         0.0584
     41 H19        10.9927   -6.1454    4.0319 H         1 <0>         0.0886
     42 H20        11.0881   -4.6463    4.9869 H         1 <0>         0.0435
     43 H21         9.7488   -5.7880    5.2539 H         1 <0>         0.0427
@<TRIPOS>BOND
     1    1    2 1
     2    1   24 1
     3    1   25 1
     4    1   26 1
     5    2    3 1
     6    2   27 1
     7    2   28 1
     8    3    4 1
     9    3   29 1
    10    3   30 1
    11    4   10 1
    12    4    5 am
    13    5    6 2
    14    5    7 1
    15    7    8 2
    16    7   31 1
    17    8    9 1
    18    8   32 1
    19    9   10 2
    20    9   11 1
    21   11   12 2
    22   11   13 1
    23   13   14 1
    24   14   15 1
    25   14   33 1
    26   14   34 1
    27   15   16 2
    28   15   17 am
    29   17   18 1
    30   17   35 1
    31   18   19 1
    32   18   20 1
    33   18   21 1
    34   20   36 1
    35   20   37 1
    36   20   38 1
    37   21   22 1
    38   21   39 1
    39   21   40 1
    40   22   23 1
    41   23   41 1
    42   23   42 1
    43   23   43 1
@<TRIPOS>MOLECULE
ZINC49947900
   45    45     0     0     0
SMALL
USER_CHARGES

@<TRIPOS>ATOM
      1 C1          0.0882    1.5218   -0.0164 C.3       1 <0>        -0.1467
      2 C2          0.0171   -0.0065    0.0010 C.3       1 <0>         0.0507
      3 N1          0.8064   -0.5206    1.1283 N.3       1 <0>        -0.5103
      4 C3          1.0885   -1.9528    0.9636 C.3       1 <0>         0.0328
      5 C4          1.9907   -2.1534   -0.2267 C.2       1 <0>         0.5237
      6 O1          2.3621   -1.1974   -0.8741 O.2       1 <0>        -0.5151
      7 N2          2.3849   -3.3952   -0.5718 N.am      1 <0>        -0.6192
      8 C5          1.9385   -4.5636    0.1991 C.3       1 <0>         0.1090
      9 C6          3.1681   -5.3696    0.6294 C.3       1 <0>        -0.1222
     10 C7          4.0052   -5.7133   -0.6048 C.3       1 <0>        -0.0781
     11 C8          4.4836   -4.4230   -1.2744 C.3       1 <0>        -0.1270
     12 C9          3.2643   -3.6067   -1.7296 C.3       1 <0>         0.1153
     13 C10         5.1980   -6.5353   -0.1894 C.2       1 <0>         0.4630
     14 O2          5.3617   -6.8173    0.9741 O.2       1 <0>        -0.5023
     15 O3          6.0785   -6.9543   -1.1118 O.3       1 <0>        -0.3525
     16 C11         7.1855   -7.7293   -0.6472 C.3       1 <0>         0.0322
     17 C12         0.1301   -0.2608    2.4062 C.3       1 <0>         0.0611
     18 C13         1.1140   -0.4198    3.5366 C.2       1 <0>         0.4560
     19 O4          2.2434   -0.7831    3.3079 O.2       1 <0>        -0.4853
     20 O5          0.7356   -0.1580    4.7976 O.3       1 <0>        -0.3574
     21 C14         1.7197   -0.3300    5.8193 C.3       1 <0>         0.0347
     22 H1          1.1315    1.8368   -0.0304 H         1 <0>         0.0685
     23 H2         -0.4172    1.8989   -0.9055 H         1 <0>         0.0624
     24 H3         -0.3992    1.9183    0.8742 H         1 <0>         0.0503
     25 H4         -1.0208   -0.3207    0.1109 H         1 <0>         0.0359
     26 H5          0.4188   -0.3996   -0.9329 H         1 <0>         0.0947
     27 H6          1.5798   -2.3317    1.8599 H         1 <0>         0.1120
     28 H7          0.1541   -2.4914    0.8062 H         1 <0>         0.0652
     29 H8          1.3918   -4.2318    1.0818 H         1 <0>         0.0896
     30 H9          1.2927   -5.1854   -0.4210 H         1 <0>         0.0770
     31 H10         3.7668   -4.7779    1.3218 H         1 <0>         0.0803
     32 H11         2.8473   -6.2891    1.1190 H         1 <0>         0.0884
     33 H12         3.3984   -6.2838   -1.3079 H         1 <0>         0.1136
     34 H13         5.0699   -3.8402   -0.5640 H         1 <0>         0.0753
     35 H14         5.0991   -4.6687   -2.1398 H         1 <0>         0.0920
     36 H15         2.7244   -4.1521   -2.5037 H         1 <0>         0.0739
     37 H16         3.5928   -2.6434   -2.1199 H         1 <0>         0.1011
     38 H17         7.8180   -8.0024   -1.4919 H         1 <0>         0.1037
     39 H18         7.7652   -7.1436    0.0663 H         1 <0>         0.0610
     40 H19         6.8179   -8.6332   -0.1614 H         1 <0>         0.0611
     41 H20        -0.2647    0.7552    2.4084 H         1 <0>         0.1242
     42 H21        -0.6885   -0.9689    2.5347 H         1 <0>         0.0824
     43 H22         2.0606   -1.3654    5.8248 H         1 <0>         0.0602
     44 H23         2.5651    0.3298    5.6242 H         1 <0>         0.0617
     45 H24         1.2842   -0.0858    6.7881 H         1 <0>         0.1030
@<TRIPOS>BOND
     1    1    2 1
     2    1   22 1
     3    1   23 1
     4    1   24 1
     5    2    3 1
     6    2   25 1
     7    2   26 1
     8    3    4 1
     9    3   17 1
    10    4    5 1
    11    4   27 1
    12    4   28 1
    13    5    6 2
    14    5    7 am
    15    7   12 1
    16    7    8 1
    17    8    9 1
    18    8   29 1
    19    8   30 1
    20    9   10 1
    21    9   31 1
    22    9   32 1
    23   10   11 1
    24   10   13 1
    25   10   33 1
    26   11   12 1
    27   11   34 1
    28   11   35 1
    29   12   36 1
    30   12   37 1
    31   13   14 2
    32   13   15 1
    33   15   16 1
    34   16   38 1
    35   16   39 1
    36   16   40 1
    37   17   18 1
    38   17   41 1
    39   17   42 1
    40   18   19 2
    41   18   20 1
    42   20   21 1
    43   21   43 1
    44   21   44 1
    45   21   45 1
@<TRIPOS>MOLECULE
ZINC62314610
   59    60     0     0     0
SMALL
USER_CHARGES

@<TRIPOS>ATOM
      1 C1         -0.0682    1.6317    0.2764 C.3       1 <0>        -0.1493
      2 C2         -0.0522    0.1117    0.1028 C.3       1 <0>         0.0640
      3 H1          0.3293   -0.1374   -0.8874 H         1 <0>         0.0531
      4 C3         -1.4755   -0.4353    0.2550 C.3       1 <0>         0.1220
      5 N1         -1.4160   -1.9048    0.2341 N.am      1 <0>        -0.6109
      6 C4         -0.4702   -2.5758    1.1388 C.3       1 <0>         0.1105
      7 C5          0.9135   -1.9445    0.9519 C.3       1 <0>         0.0613
      8 H2          1.6025   -2.3529    1.6913 H         1 <0>         0.1034
      9 N2          0.8127   -0.4895    1.1268 N.3       1 <0>        -0.5240
     10 C6          2.1424    0.1348    1.1255 C.3       1 <0>         0.0498
     11 C7          2.9103   -0.2981    2.3760 C.3       1 <0>        -0.1148
     12 C8          4.2953    0.3521    2.3747 C.3       1 <0>         0.0618
     13 O1          5.0125   -0.0522    3.5426 O.3       1 <0>        -0.3917
     14 C9          6.3259    0.5024    3.6392 C.3       1 <0>         0.0313
     15 C10         1.4307   -2.2551   -0.4542 C.3       1 <0>        -0.1911
     16 C11        -2.2074   -2.6175   -0.5918 C.2       1 <0>         0.5261
     17 O2         -2.9819   -2.0477   -1.3309 O.2       1 <0>        -0.5338
     18 C12        -2.1300   -4.1225   -0.5968 C.3       1 <0>        -0.1342
     19 C13        -3.1247   -4.6810   -1.6164 C.3       1 <0>        -0.6171
     20 S1         -3.0315   -6.4926   -1.6224 S.o2      1 <0>         2.6087
     21 O3         -1.7788   -6.9165   -2.1422 O.2       1 <0>        -0.9471
     22 O4         -3.5187   -7.0118   -0.3927 O.2       1 <0>        -0.9462
     23 N3         -4.1423   -6.9721   -2.7532 N.pl3     1 <0>        -1.0013
     24 C14        -5.5407   -7.2341   -2.3777 C.3       1 <0>         0.0849
     25 C15        -6.4521   -6.4589   -3.3360 C.3       1 <0>         0.0445
     26 O5         -6.0883   -6.7667   -4.6839 O.3       1 <0>        -0.3744
     27 C16        -4.7582   -6.3771   -5.0346 C.3       1 <0>         0.0446
     28 C17        -3.7614   -7.1427   -4.1643 C.3       1 <0>         0.0850
     29 H3          0.9181    2.0342    0.0452 H         1 <0>         0.0614
     30 H4         -0.8054    2.0667   -0.3985 H         1 <0>         0.0656
     31 H5         -0.3286    1.8772    1.3059 H         1 <0>         0.0700
     32 H6         -1.8976   -0.0994    1.2021 H         1 <0>         0.0786
     33 H7         -2.0937   -0.0822   -0.5704 H         1 <0>         0.0965
     34 H8         -0.7957   -2.4456    2.1709 H         1 <0>         0.0853
     35 H9         -0.4237   -3.6378    0.8978 H         1 <0>         0.0900
     36 H10         2.6899   -0.1782    0.2365 H         1 <0>         0.0405
     37 H11         2.0345    1.2195    1.1227 H         1 <0>         0.0851
     38 H12         2.3629    0.0148    3.2651 H         1 <0>         0.0809
     39 H13         3.0182   -1.3828    2.3788 H         1 <0>         0.0708
     40 H14         4.8427    0.0391    1.4856 H         1 <0>         0.0467
     41 H15         4.1874    1.4368    2.3719 H         1 <0>         0.0495
     42 H16         6.9155    0.1925    2.7764 H         1 <0>         0.0412
     43 H17         6.2602    1.5901    3.6627 H         1 <0>         0.0418
     44 H18         6.8039    0.1475    4.5523 H         1 <0>         0.0875
     45 H19         0.7419   -1.8458   -1.1932 H         1 <0>         0.0607
     46 H20         2.4149   -1.8059   -0.5867 H         1 <0>         0.0618
     47 H21         1.5036   -3.3348   -0.5842 H         1 <0>         0.0658
     48 H22        -1.1206   -4.4335   -0.8660 H         1 <0>         0.1091
     49 H23        -2.3748   -4.5022    0.3952 H         1 <0>         0.1112
     50 H24        -4.1341   -4.3700   -1.3472 H         1 <0>         0.1397
     51 H25        -2.8799   -4.3013   -2.6084 H         1 <0>         0.1387
     52 H26        -5.7482   -8.3013   -2.4565 H         1 <0>         0.0861
     53 H27        -5.7149   -6.9003   -1.3548 H         1 <0>         0.1005
     54 H28        -7.4894   -6.7462   -3.1643 H         1 <0>         0.1096
     55 H29        -6.3364   -5.3890   -3.1629 H         1 <0>         0.0576
     56 H30        -4.5770   -6.6055   -6.0849 H         1 <0>         0.1096
     57 H31        -4.6364   -5.3069   -4.8677 H         1 <0>         0.0570
     58 H32        -2.7579   -6.7484   -4.3240 H         1 <0>         0.1002
     59 H33        -3.7867   -8.2005   -4.4260 H         1 <0>         0.0857
@<TRIPOS>BOND
     1    1    2 1
     2    1   29 1
     3    1   30 1
     4    1   31 1
     5    2    3 1
     6    2    9 1
     7    2    4 1
     8    4    5 1
     9    4   32 1
    10    4   33 1
    11    5    6 1
    12    5   16 am
    13    6    7 1
    14    6   34 1
    15    6   35 1
    16    7    8 1
    17    7    9 1
    18    7   15 1
    19    9   10 1
    20   10   11 1
    21   10   36 1
    22   10   37 1
    23   11   12 1
    24   11   38 1
    25   11   39 1
    26   12   13 1
    27   12   40 1
    28   12   41 1
    29   13   14 1
    30   14   42 1
    31   14   43 1
    32   14   44 1
    33   15   45 1
    34   15   46 1
    35   15   47 1
    36   16   17 2
    37   16   18 1
    38   18   19 1
    39   18   48 1
    40   18   49 1
    41   19   20 1
    42   19   50 1
    43   19   51 1
    44   20   21 2
    45   20   22 2
    46   20   23 1
    47   23   28 1
    48   23   24 1
    49   24   25 1
    50   24   52 1
    51   24   53 1
    52   25   26 1
    53   25   54 1
    54   25   55 1
    55   26   27 1
    56   27   28 1
    57   27   56 1
    58   27   57 1
    59   28   58 1
    60   28   59 1
@<TRIPOS>MOLECULE
ZINC66943203
   43    42     0     0     0
SMALL
USER_CHARGES

@<TRIPOS>ATOM
      1 C1         -0.0178    1.4608    0.0101 C.3       1 <0>         0.0781
      2 N1          0.0021   -0.0041    0.0020 N.am      1 <0>        -0.5985
      3 C2          0.0241   -0.7433    1.2666 C.3       1 <0>         0.0983
      4 C3         -1.3889   -1.0161    1.7137 C.2       1 <0>         0.4969
      5 O1         -2.3225   -0.6310    1.0421 O.2       1 <0>        -0.5279
      6 N2         -1.6152   -1.6881    2.8599 N.am      1 <0>        -0.7297
      7 C4         -2.9889   -1.9533    3.2945 C.3       1 <0>         0.1228
      8 C5         -2.9659   -2.7253    4.6153 C.3       1 <0>        -0.1314
      9 C6         -4.4005   -3.0023    5.0692 C.3       1 <0>         0.0635
     10 O2         -4.3790   -3.7234    6.3027 O.3       1 <0>        -0.3927
     11 C7         -5.6755   -4.0345    6.8168 C.3       1 <0>         0.0312
     12 C8          0.0001   -0.6716   -1.1688 C.2       1 <0>         0.5401
     13 O3          0.0165   -1.8843   -1.1755 O.2       1 <0>        -0.5120
     14 C9         -0.0226    0.0888   -2.4697 C.3       1 <0>        -0.1231
     15 S1         -0.0198   -1.0824   -3.8549 S.3       1 <0>        -0.1683
     16 C10        -0.0482   -0.0220   -5.3263 C.3       1 <0>        -0.1096
     17 C11        -0.0482   -0.8940   -6.5835 C.3       1 <0>         0.0793
     18 O4         -0.0706   -0.0586   -7.7427 O.3       1 <0>        -0.3907
     19 C12        -0.0725   -0.7778   -8.9775 C.3       1 <0>         0.0320
     20 H1          1.0048    1.8381    0.0023 H         1 <0>         0.0645
     21 H2         -0.5450    1.8219   -0.8730 H         1 <0>         0.0753
     22 H3         -0.5280    1.8123    0.9069 H         1 <0>         0.0761
     23 H4          0.5496   -1.6879    1.1262 H         1 <0>         0.1180
     24 H5          0.5371   -0.1514    2.0246 H         1 <0>         0.1131
     25 H6         -0.8686   -1.9961    3.3970 H         1 <0>         0.4033
     26 H7         -3.5143   -1.0087    3.4350 H         1 <0>         0.0702
     27 H8         -3.5019   -2.5452    2.5365 H         1 <0>         0.0706
     28 H9         -2.4405   -3.6700    4.4748 H         1 <0>         0.0800
     29 H10        -2.4529   -2.1334    5.3732 H         1 <0>         0.0794
     30 H11        -4.9259   -2.0577    5.2096 H         1 <0>         0.0532
     31 H12        -4.9135   -3.5943    4.3112 H         1 <0>         0.0537
     32 H13        -5.5731   -4.5816    7.7540 H         1 <0>         0.0883
     33 H14        -6.2274   -3.1112    6.9935 H         1 <0>         0.0427
     34 H15        -6.2150   -4.6478    6.0951 H         1 <0>         0.0431
     35 H16        -0.9215    0.7036   -2.5156 H         1 <0>         0.1149
     36 H17         0.8582    0.7278   -2.5324 H         1 <0>         0.1138
     37 H18        -0.9465    0.5951   -5.3122 H         1 <0>         0.0907
     38 H19         0.8332    0.6194   -5.3290 H         1 <0>         0.0907
     39 H20         0.8502   -1.5111   -6.5977 H         1 <0>         0.0610
     40 H21        -0.9296   -1.5353   -6.5808 H         1 <0>         0.0610
     41 H22         0.8254   -1.3925   -9.0413 H         1 <0>         0.0442
     42 H23        -0.9543   -1.4167   -9.0245 H         1 <0>         0.0442
     43 H24        -0.0899   -0.0727   -9.8086 H         1 <0>         0.0895
@<TRIPOS>BOND
     1    1    2 1
     2    1   20 1
     3    1   21 1
     4    1   22 1
     5    2    3 1
     6    2   12 am
     7    3    4 1
     8    3   23 1
     9    3   24 1
    10    4    5 2
    11    4    6 am
    12    6    7 1
    13    6   25 1
    14    7    8 1
    15    7   26 1
    16    7   27 1
    17    8    9 1
    18    8   28 1
    19    8   29 1
    20    9   10 1
    21    9   30 1
    22    9   31 1
    23   10   11 1
    24   11   32 1
    25   11   33 1
    26   11   34 1
    27   12   13 2
    28   12   14 1
    29   14   15 1
    30   14   35 1
    31   14   36 1
    32   15   16 1
    33   16   17 1
    34   16   37 1
    35   16   38 1
    36   17   18 1
    37   17   39 1
    38   17   40 1
    39   18   19 1
    40   19   41 1
    41   19   42 1
    42   19   43 1
@<TRIPOS>MOLECULE
ZINC06225062
   41    42     0     0     0
SMALL
USER_CHARGES
2-[2-(4-ethyl-2-oxo-chromen-7-yl)oxyacetyl]aminobutanedioic acid
@<TRIPOS>ATOM
      1 C1         -1.7046    2.4831   -1.4134 C.3       1 <0>        -0.1497
      2 C2         -1.3198    2.1106    0.0198 C.3       1 <0>        -0.0967
      3 C3         -0.0163    1.3543    0.0095 C.2       1 <0>         0.0556
      4 C4          0.0021   -0.0041    0.0020 C.2       1 <0>        -0.2799
      5 C5          1.2346   -0.6887   -0.0134 C.2       1 <0>         0.5141
      6 O1          1.2367   -1.9067   -0.0200 O.2       1 <0>        -0.4789
      7 O2          2.4056   -0.0328   -0.0206 O.3       1 <0>        -0.2693
      8 C6          2.4577    1.3165   -0.0138 C.ar      1 <0>         0.1906
      9 C7          1.2648    2.0636    0.0011 C.ar      1 <0>        -0.2072
     10 C8          1.3142    3.4620    0.0090 C.ar      1 <0>        -0.0119
     11 C9          2.5219    4.0980    0.0013 C.ar      1 <0>        -0.2274
     12 C10         3.7060    3.3639   -0.0134 C.ar      1 <0>         0.2077
     13 C11         3.6756    1.9787   -0.0210 C.ar      1 <0>        -0.1795
     14 O3          4.8992    4.0111   -0.0208 O.3       1 <0>        -0.2684
     15 C12         4.8625    5.4396   -0.0124 C.3       1 <0>         0.0407
     16 C13         6.2698    5.9784   -0.0224 C.2       1 <0>         0.5210
     17 O4          7.2116    5.2143   -0.0355 O.2       1 <0>        -0.5359
     18 N1          6.4819    7.3094   -0.0169 N.am      1 <0>        -0.6657
     19 C14         7.8501    7.8331   -0.0266 C.3       1 <0>         0.1265
     20 H1          8.4848    7.1802   -0.6257 H         1 <0>         0.0899
     21 C15         7.8534    9.2398   -0.6283 C.3       1 <0>        -0.1500
     22 C16         7.4438    9.1676   -2.0768 C.2       1 <0>         0.4629
     23 O5          7.1767    8.1004   -2.5766 O.co2     1 <0>        -0.6350
     24 C17         8.3767    7.8890    1.3843 C.2       1 <0>         0.4632
     25 O6          7.6805    7.5284    2.3036 O.co2     1 <0>        -0.6432
     26 H2         -0.9250    3.1087   -1.8480 H         1 <0>         0.0636
     27 H3         -1.8157    1.5759   -2.0072 H         1 <0>         0.0597
     28 H4         -2.6474    3.0301   -1.4059 H         1 <0>         0.0662
     29 H5         -2.0994    1.4850    0.4544 H         1 <0>         0.0849
     30 H6         -1.2087    3.0178    0.6137 H         1 <0>         0.0874
     31 H7         -0.9250   -0.5581    0.0075 H         1 <0>         0.1570
     32 H8          0.3996    4.0363    0.0204 H         1 <0>         0.1413
     33 H9          2.5598    5.1773    0.0071 H         1 <0>         0.1467
     34 H10         4.5978    1.4167   -0.0320 H         1 <0>         0.1550
     35 H11         4.3312    5.7947   -0.8955 H         1 <0>         0.0962
     36 H12         4.3478    5.7846    0.8844 H         1 <0>         0.0947
     37 H13         5.7287    7.9205   -0.0064 H         1 <0>         0.3883
     38 H14         7.1507    9.8699   -0.0831 H         1 <0>         0.0605
     39 H15         8.8547    9.6642   -0.5546 H         1 <0>         0.0882
     40 O7          7.3758   10.2887   -2.8118 O.co2     1 <0>        -0.7898
     41 O8          9.6190    8.3395    1.6196 O.co2     1 <0>        -0.7733
@<TRIPOS>BOND
     1    1    2 1
     2    1   26 1
     3    1   27 1
     4    1   28 1
     5    2    3 1
     6    2   29 1
     7    2   30 1
     8    3    9 1
     9    3    4 2
    10    4    5 1
    11    4   31 1
    12    5    6 2
    13    5    7 1
    14    7    8 1
    15    8   13 ar
    16    8    9 ar
    17    9   10 ar
    18   10   11 ar
    19   10   32 1
    20   11   12 ar
    21   11   33 1
    22   12   13 ar
    23   12   14 1
    24   13   34 1
    25   14   15 1
    26   15   16 1
    27   15   35 1
    28   15   36 1
    29   16   17 2
    30   16   18 am
    31   18   19 1
    32   18   37 1
    33   19   20 1
    34   19   21 1
    35   19   24 1
    36   21   22 1
    37   21   38 1
    38   21   39 1
    39   22   23 2
    40   22   40 1
    41   24   25 2
    42   24   41 1
@<TRIPOS>MOLECULE
ZINC13358772
   39    39     0     0     0
SMALL
USER_CHARGES
3-[[5-[(E)-3-hydroxy-3-oxo-prop-1-enyl]-2,3-dimethoxy-phenyl]sulfonylamino]propanoic acid
@<TRIPOS>ATOM
      1 C1          0.8031    5.9342   -3.8955 C.3       1 <0>         0.0215
      2 O1          0.7651    5.1642   -2.6923 O.3       1 <0>        -0.3076
      3 C2         -0.3084    4.3481   -2.5152 C.ar      1 <0>         0.0912
      4 C3         -1.2981    4.2913   -3.4764 C.ar      1 <0>        -0.1463
      5 C4         -2.4013    3.4498   -3.2909 C.ar      1 <0>        -0.0212
      6 C5         -2.4921    2.6664   -2.1345 C.ar      1 <0>        -0.0343
      7 C6         -1.5029    2.7336   -1.1783 C.ar      1 <0>        -0.6549
      8 C7         -0.4089    3.5687   -1.3633 C.ar      1 <0>         0.1533
      9 O2          0.5662    3.6262   -0.4197 O.3       1 <0>        -0.3270
     10 C8          1.7204    2.8101   -0.6290 C.3       1 <0>         0.0331
     11 S1         -1.6224    1.7520    0.2800 S.o2      1 <0>         2.7058
     12 O3         -0.3730    1.0914    0.4284 O.2       1 <0>        -0.9667
     13 O4         -2.8523    1.0454    0.1944 O.2       1 <0>        -0.9564
     14 N1         -1.7626    2.7926    1.5606 N.pl3     1 <0>        -1.1064
     15 C9         -2.9369    3.6612    1.6734 C.3       1 <0>         0.1321
     16 C10        -3.0242    4.2187    3.0955 C.3       1 <0>        -0.1610
     17 C11        -4.2946    5.0153    3.2458 C.2       1 <0>         0.4637
     18 O5         -5.0049    5.2062    2.2872 O.co2     1 <0>        -0.6331
     19 C12        -3.4579    3.3844   -4.3102 C.2       1 <0>        -0.1096
     20 C13        -3.3654    4.1370   -5.4283 C.2       1 <0>        -0.1397
     21 C14        -4.3847    4.0738   -6.4117 C.2       1 <0>         0.4715
     22 O6         -5.3426    3.3419   -6.2487 O.co2     1 <0>        -0.6322
     23 H1          0.7992    5.2647   -4.7556 H         1 <0>         0.0564
     24 H2         -0.0699    6.5854   -3.9379 H         1 <0>         0.0594
     25 H3          1.7092    6.5399   -3.9107 H         1 <0>         0.0999
     26 H4         -1.2215    4.8948   -4.3688 H         1 <0>         0.1449
     27 H5         -3.3396    2.0128   -1.9899 H         1 <0>         0.1547
     28 H6          1.4115    1.7759   -0.7809 H         1 <0>         0.0676
     29 H7          2.2590    3.1613   -1.5092 H         1 <0>         0.0436
     30 H8          2.3712    2.8705    0.2433 H         1 <0>         0.0934
     31 H9         -1.0653    2.8300    2.2338 H         1 <0>         0.4151
     32 H10        -2.8490    4.4850    0.9650 H         1 <0>         0.0665
     33 H11        -3.8364    3.0866    1.4526 H         1 <0>         0.0829
     34 H12        -3.0254    3.3949    3.8093 H         1 <0>         0.0720
     35 H13        -2.1663    4.8635    3.2863 H         1 <0>         0.0711
     36 H14        -4.3083    2.7346   -4.1655 H         1 <0>         0.1385
     37 H15        -2.5149    4.7867   -5.5731 H         1 <0>         0.1033
     38 O7         -4.6370    5.5128    4.4445 O.co2     1 <0>        -0.7764
     39 O8         -4.2923    4.8255   -7.5284 O.co2     1 <0>        -0.7684
@<TRIPOS>BOND
     1    1    2 1
     2    1   23 1
     3    1   24 1
     4    1   25 1
     5    2    3 1
     6    3    8 ar
     7    3    4 ar
     8    4    5 ar
     9    4   26 1
    10    5    6 ar
    11    5   19 1
    12    6    7 ar
    13    6   27 1
    14    7    8 ar
    15    7   11 1
    16    8    9 1
    17    9   10 1
    18   10   28 1
    19   10   29 1
    20   10   30 1
    21   11   12 2
    22   11   13 2
    23   11   14 1
    24   14   15 1
    25   14   31 1
    26   15   16 1
    27   15   32 1
    28   15   33 1
    29   16   17 1
    30   16   34 1
    31   16   35 1
    32   17   18 2
    33   17   38 1
    34   19   20 2
    35   19   36 1
    36   20   21 1
    37   20   37 1
    38   21   22 2
    39   21   39 1
@<TRIPOS>MOLECULE
ZINC13422305
   41    42     0     0     0
SMALL
USER_CHARGES
4-[2-[(1-cyanocyclohexyl)amino]-2-oxo-ethoxy]benzene-1,3-dicarboxylic acid
@<TRIPOS>ATOM
      1 C1          0.9836   -6.2114    1.4875 C.ar      1 <0>        -0.0413
      2 C2          0.8760   -4.8466    1.3450 C.ar      1 <0>        -0.2506
      3 C3          1.4244   -3.9980    2.2984 C.ar      1 <0>         0.1454
      4 C4          2.0963   -4.5320    3.4103 C.ar      1 <0>        -0.1622
      5 C5          2.2005   -5.9133    3.5572 C.ar      1 <0>        -0.0019
      6 C6          1.6469   -6.7548    2.5941 C.ar      1 <0>        -0.1736
      7 C7          1.7593   -8.2183    2.7410 C.2       1 <0>         0.4991
      8 O1          2.3350   -8.6900    3.7014 O.co2     1 <0>        -0.6339
      9 C8          2.6847   -3.6339    4.4208 C.2       1 <0>         0.4935
     10 O2          2.5889   -2.4294    4.2926 O.co2     1 <0>        -0.6152
     11 O3          1.3160   -2.6556    2.1530 O.3       1 <0>        -0.2467
     12 C9          0.6248   -2.1822    0.9953 C.3       1 <0>         0.0362
     13 C10         0.6044   -0.6754    1.0035 C.2       1 <0>         0.5117
     14 O4          1.1299   -0.0668    1.9115 O.2       1 <0>        -0.4751
     15 N1          0.0021   -0.0041    0.0020 N.am      1 <0>        -0.7309
     16 C11        -0.0178    1.4608    0.0101 C.3       1 <0>         0.2851
     17 C12        -0.7339    1.9542    1.2689 C.3       1 <0>        -0.1325
     18 C13        -0.7547    3.4840    1.2773 C.3       1 <0>        -0.1215
     19 C14        -1.4947    3.9909    0.0378 C.3       1 <0>        -0.1209
     20 C15        -0.7785    3.4974   -1.2210 C.3       1 <0>        -0.1197
     21 C16        -0.7578    1.9676   -1.2295 C.3       1 <0>        -0.1166
     22 C17         1.3632    1.9703   -0.0004 C.1       1 <0>         0.2070
     23 N2          2.4289    2.3635   -0.0084 N.1       1 <0>        -0.4149
     24 H1          0.5550   -6.8655    0.7426 H         1 <0>         0.1256
     25 H2          0.3636   -4.4338    0.4885 H         1 <0>         0.1142
     26 H3          2.7123   -6.3304    4.4118 H         1 <0>         0.1421
     27 H4         -0.3978   -2.5595    1.0030 H         1 <0>         0.0875
     28 H5          1.1350   -2.5337    0.0985 H         1 <0>         0.0847
     29 H6         -0.4183   -0.4908   -0.7241 H         1 <0>         0.4076
     30 H7         -1.7565    1.5769    1.2766 H         1 <0>         0.0857
     31 H8         -0.2067    1.5931    2.1519 H         1 <0>         0.0989
     32 H9          0.2679    3.8613    1.2696 H         1 <0>         0.0618
     33 H10        -1.2649    3.8356    2.1741 H         1 <0>         0.0735
     34 H11        -1.5095    5.0807    0.0438 H         1 <0>         0.0642
     35 H12        -2.5173    3.6136    0.0455 H         1 <0>         0.0683
     36 H13         0.2441    3.8747   -1.2288 H         1 <0>         0.0634
     37 H14        -1.3057    3.8585   -2.1041 H         1 <0>         0.0738
     38 H15        -0.2476    1.6161   -2.1262 H         1 <0>         0.0787
     39 H16        -1.7804    1.5903   -1.2217 H         1 <0>         0.0928
     40 O5          1.2237   -9.0320    1.8102 O.co2     1 <0>        -0.7751
     41 O6          3.3288   -4.1488    5.4865 O.co2     1 <0>        -0.7683
@<TRIPOS>BOND
     1    1    6 ar
     2    1    2 ar
     3    1   24 1
     4    2    3 ar
     5    2   25 1
     6    3    4 ar
     7    3   11 1
     8    4    5 ar
     9    4    9 1
    10    5    6 ar
    11    5   26 1
    12    6    7 1
    13    7    8 2
    14    7   40 1
    15    9   10 2
    16    9   41 1
    17   11   12 1
    18   12   13 1
    19   12   27 1
    20   12   28 1
    21   13   14 2
    22   13   15 am
    23   15   16 1
    24   15   29 1
    25   16   21 1
    26   16   17 1
    27   16   22 1
    28   17   18 1
    29   17   30 1
    30   17   31 1
    31   18   19 1
    32   18   32 1
    33   18   33 1
    34   19   20 1
    35   19   34 1
    36   19   35 1
    37   20   21 1
    38   20   36 1
    39   20   37 1
    40   21   38 1
    41   21   39 1
    42   22   23 3
@<TRIPOS>MOLECULE
ZINC47318176
   35    36     0     0     0
SMALL
USER_CHARGES

@<TRIPOS>ATOM
      1 C1         -0.0178    1.4608    0.0101 C.3       1 <0>         0.0895
      2 N1          0.0021   -0.0041    0.0020 N.am      1 <0>        -0.7344
      3 C2          0.5851   -0.6645   -1.0180 C.2       1 <0>         0.5628
      4 O1          1.0944   -0.0447   -1.9312 O.2       1 <0>        -0.5375
      5 C3          0.6051   -2.1428   -1.0261 C.ar      1 <0>        -0.1143
      6 C4          0.0161   -2.8575    0.0181 C.ar      1 <0>        -0.1130
      7 C5          0.0379   -4.2369    0.0042 C.ar      1 <0>        -0.0329
      8 C6          0.6422   -4.9117   -1.0416 C.ar      1 <0>        -0.5790
      9 C7          1.2283   -4.2093   -2.0795 C.ar      1 <0>        -0.0322
     10 C8          1.2081   -2.8298   -2.0809 C.ar      1 <0>        -0.0836
     11 S1          0.6661   -6.6735   -1.0513 S.o2      1 <0>         2.5840
     12 O2          1.7674   -7.0603   -1.8617 O.2       1 <0>        -1.0310
     13 O3          0.5324   -7.0890    0.3011 O.2       1 <0>        -1.0321
     14 N2         -0.7009   -7.1774   -1.8386 N.2       1 <0>        -1.0825
     15 C9         -0.9514   -8.5431   -1.9997 C.ar      1 <0>         0.2574
     16 C10        -0.0551   -9.4784   -1.4936 C.ar      1 <0>        -0.2583
     17 C11        -0.2966  -10.8299   -1.6494 C.ar      1 <0>        -0.0825
     18 C12        -1.4307  -11.2623   -2.3093 C.ar      1 <0>        -0.0870
     19 C13        -2.3385  -10.3300   -2.8216 C.ar      1 <0>        -0.0978
     20 C14        -2.0951   -8.9641   -2.6584 C.ar      1 <0>        -0.1257
     21 C15        -3.5501  -10.7870   -3.5271 C.2       1 <0>         0.5225
     22 O4         -4.3424   -9.9695   -3.9742 O.co2     1 <0>        -0.7004
     23 O5         -3.7627  -11.9835   -3.6652 O.co2     1 <0>        -0.6767
     24 Cl1        -1.7283  -12.9616   -2.5030 Cl        1 <0>        -0.0917
     25 H1          1.0048    1.8381    0.0023 H         1 <0>         0.0587
     26 H2         -0.5450    1.8219   -0.8730 H         1 <0>         0.0598
     27 H3         -0.5280    1.8123    0.9069 H         1 <0>         0.0747
     28 H4         -0.4044   -0.4986    0.7308 H         1 <0>         0.4037
     29 H5         -0.4553   -2.3319    0.8353 H         1 <0>         0.1268
     30 H6         -0.4175   -4.7911    0.8116 H         1 <0>         0.1444
     31 H7          1.6988   -4.7420   -2.8927 H         1 <0>         0.1457
     32 H8          1.6616   -2.2827   -2.8941 H         1 <0>         0.1384
     33 H9          0.8335   -9.1470   -0.9770 H         1 <0>         0.0957
     34 H10         0.4037  -11.5508   -1.2541 H         1 <0>         0.1039
     35 H11        -2.7939   -8.2388   -3.0482 H         1 <0>         0.1248
@<TRIPOS>BOND
     1    1    2 1
     2    1   25 1
     3    1   26 1
     4    1   27 1
     5    2    3 am
     6    2   28 1
     7    3    4 2
     8    3    5 1
     9    5   10 ar
    10    5    6 ar
    11    6    7 ar
    12    6   29 1
    13    7    8 ar
    14    7   30 1
    15    8    9 ar
    16    8   11 1
    17    9   10 ar
    18    9   31 1
    19   10   32 1
    20   11   12 2
    21   11   13 2
    22   11   14 1
    23   14   15 1
    24   15   20 ar
    25   15   16 ar
    26   16   17 ar
    27   16   33 1
    28   17   18 ar
    29   17   34 1
    30   18   19 ar
    31   18   24 1
    32   19   20 ar
    33   19   21 1
    34   20   35 1
    35   21   22 2
    36   21   23 1
@<TRIPOS>MOLECULE
ZINC63640257
   47    48     0     0     0
SMALL
USER_CHARGES

@<TRIPOS>ATOM
      1 C1         -0.0242    1.5238   -0.2965 C.3       1 <0>        -0.1406
      2 C2         -0.0108   -0.0049   -0.3578 C.3       1 <0>        -0.1174
      3 C3         -1.4319   -0.5358   -0.1589 C.3       1 <0>        -0.5999
      4 S1         -1.4160   -2.3483   -0.2316 S.o2      1 <0>         2.5194
      5 O1         -1.1007   -2.7825   -1.5474 O.2       1 <0>        -1.0337
      6 O2         -0.7240   -2.8771    0.8911 O.2       1 <0>        -1.0277
      7 N1         -2.9939   -2.7971   -0.0053 N.2       1 <0>        -1.1055
      8 C4         -3.3424   -4.1519   -0.0040 C.ar      1 <0>         0.2625
      9 C5         -2.3643   -5.1208   -0.1869 C.ar      1 <0>        -0.2385
     10 C6         -2.7085   -6.4579   -0.1856 C.ar      1 <0>        -0.0632
     11 C7         -4.0325   -6.8339   -0.0020 C.ar      1 <0>         0.0537
     12 C8         -5.0105   -5.8653    0.1804 C.ar      1 <0>        -0.1079
     13 C9         -4.6658   -4.5284    0.1859 C.ar      1 <0>        -0.1736
     14 N2         -4.3817   -8.1912   -0.0012 N.am      1 <0>        -0.6813
     15 C10        -3.5213   -9.1081    0.4840 C.2       1 <0>         0.5166
     16 O3         -2.4865   -8.7518    1.0069 O.2       1 <0>        -0.4902
     17 C11        -3.8450  -10.5760    0.3769 C.3       1 <0>        -0.1002
     18 C12        -2.7123  -11.3948    0.9995 C.3       1 <0>        -0.1193
     19 C13        -1.4030  -11.1666    0.2162 C.3       1 <0>        -0.0864
     20 C14        -0.7116  -12.5526    0.2202 C.3       1 <0>        -0.1193
     21 C15        -1.9024  -13.5292    0.0549 C.3       1 <0>        -0.1157
     22 C16        -3.0298  -12.8969    0.8970 C.3       1 <0>        -0.0976
     23 C17        -2.5263  -11.0038    2.4429 C.2       1 <0>         0.5179
     24 O4         -3.2439  -10.1536    2.9416 O.co2     1 <0>        -0.6850
     25 O5         -1.6582  -11.5377    3.1121 O.co2     1 <0>        -0.7092
     26 H1          0.9882    1.9020   -0.4382 H         1 <0>         0.0524
     27 H2         -0.6710    1.9133   -1.0826 H         1 <0>         0.0541
     28 H3         -0.3994    1.8451    0.6752 H         1 <0>         0.0547
     29 H4          0.3644   -0.3263   -1.3295 H         1 <0>         0.0702
     30 H5          0.6359   -0.3945    0.4283 H         1 <0>         0.0711
     31 H6         -1.8071   -0.2144    0.8128 H         1 <0>         0.1171
     32 H7         -2.0787   -0.1463   -0.9451 H         1 <0>         0.1162
     33 H8         -1.3346   -4.8284   -0.3304 H         1 <0>         0.0991
     34 H9         -1.9480   -7.2114   -0.3278 H         1 <0>         0.1143
     35 H10        -6.0404   -6.1580    0.3225 H         1 <0>         0.1034
     36 H11        -5.4258   -3.7753    0.3329 H         1 <0>         0.1089
     37 H12        -5.2427   -8.4706   -0.3498 H         1 <0>         0.3906
     38 H13        -4.7756  -10.7824    0.9056 H         1 <0>         0.0802
     39 H14        -3.9554  -10.8481   -0.6728 H         1 <0>         0.0657
     40 H15        -1.6192  -10.8511   -0.8045 H         1 <0>         0.0421
     41 H16        -0.7803  -10.4281    0.7210 H         1 <0>         0.0702
     42 H17        -0.0199  -12.6416   -0.6175 H         1 <0>         0.0469
     43 H18        -0.1985  -12.7256    1.1662 H         1 <0>         0.0734
     44 H19        -2.1992  -13.5952   -0.9918 H         1 <0>         0.0513
     45 H20        -1.6440  -14.5148    0.4421 H         1 <0>         0.0515
     46 H21        -3.0485  -13.3433    1.8912 H         1 <0>         0.0621
     47 H22        -3.9908  -13.0426    0.4037 H         1 <0>         0.0467
@<TRIPOS>BOND
     1    1    2 1
     2    1   26 1
     3    1   27 1
     4    1   28 1
     5    2    3 1
     6    2   29 1
     7    2   30 1
     8    3    4 1
     9    3   31 1
    10    3   32 1
    11    4    5 2
    12    4    6 2
    13    4    7 1
    14    7    8 1
    15    8   13 ar
    16    8    9 ar
    17    9   10 ar
    18    9   33 1
    19   10   11 ar
    20   10   34 1
    21   11   12 ar
    22   11   14 1
    23   12   13 ar
    24   12   35 1
    25   13   36 1
    26   14   15 am
    27   14   37 1
    28   15   16 2
    29   15   17 1
    30   17   18 1
    31   17   38 1
    32   17   39 1
    33   18   22 1
    34   18   19 1
    35   18   23 1
    36   19   20 1
    37   19   40 1
    38   19   41 1
    39   20   21 1
    40   20   42 1
    41   20   43 1
    42   21   22 1
    43   21   44 1
    44   21   45 1
    45   22   46 1
    46   22   47 1
    47   23   24 2
    48   23   25 1
@<TRIPOS>MOLECULE
ZINC13236173
   36    38     0     0     0
SMALL
USER_CHARGES
4-[[3-(carboxymethyl)benzofuran-6-yl]oxymethyl]benzoic acid
@<TRIPOS>ATOM
      1 C1         -0.4628   -7.9545    6.3648 C.ar      1 <0>        -0.1133
      2 C2         -0.1713   -9.1007    7.0748 C.ar      1 <0>        -0.0829
      3 C3          1.1590   -9.4451    7.3227 C.ar      1 <0>        -0.1054
      4 C4          2.1857   -8.6284    6.8447 C.ar      1 <0>        -0.0911
      5 C5          1.8801   -7.4878    6.1316 C.ar      1 <0>        -0.1118
      6 C6          0.5596   -7.1524    5.8896 C.ar      1 <0>        -0.1047
      7 C7          0.2335   -5.9046    5.1102 C.3       1 <0>         0.1082
      8 O1          0.1607   -6.2180    3.7179 O.3       1 <0>        -0.3047
      9 C8         -0.1270   -5.1957    2.8694 C.ar      1 <0>         0.1533
     10 C9         -0.3342   -3.9158    3.3762 C.ar      1 <0>        -0.2234
     11 C10        -0.6242   -2.8784    2.5351 C.ar      1 <0>        -0.0196
     12 C11        -0.7128   -3.1038    1.1620 C.ar      1 <0>        -0.1476
     13 C12        -0.5052   -4.3923    0.6419 C.ar      1 <0>         0.0909
     14 C13        -0.2117   -5.4361    1.5100 C.ar      1 <0>        -0.1560
     15 O2         -0.6519   -4.3127   -0.6959 O.3       1 <0>        -0.1971
     16 C14        -0.9470   -3.0554   -1.0719 C.2       1 <0>        -0.0323
     17 C15        -0.9972   -2.2530   -0.0005 C.2       1 <0>        -0.1081
     18 C16        -1.2926   -0.7753    0.0102 C.3       1 <0>        -0.0994
     19 C17         0.0021   -0.0041    0.0020 C.2       1 <0>         0.4641
     20 O3          1.0565   -0.5939   -0.0112 O.co2     1 <0>        -0.6267
     21 C18         1.4787  -10.6684    8.0867 C.2       1 <0>         0.4895
     22 O4          2.6369  -10.9656    8.3004 O.co2     1 <0>        -0.6319
     23 H1         -1.4914   -7.6847    6.1759 H         1 <0>         0.1181
     24 H2         -0.9701   -9.7283    7.4413 H         1 <0>         0.1316
     25 H3          3.2167   -8.8892    7.0327 H         1 <0>         0.1281
     26 H4          2.6732   -6.8554    5.7611 H         1 <0>         0.1189
     27 H5          1.0120   -5.1596    5.2747 H         1 <0>         0.0695
     28 H6         -0.7253   -5.5079    5.4440 H         1 <0>         0.0687
     29 H7         -0.2651   -3.7417    4.4398 H         1 <0>         0.1316
     30 H8         -0.7839   -1.8870    2.9327 H         1 <0>         0.1273
     31 H9         -0.0503   -6.4321    1.1248 H         1 <0>         0.1349
     32 H10        -1.1162   -2.7383   -2.0904 H         1 <0>         0.2006
     33 H11        -1.8592   -0.5245    0.9070 H         1 <0>         0.0764
     34 H12        -1.8762   -0.5150   -0.8728 H         1 <0>         0.0767
     35 O5         -0.0161    1.3381    0.0094 O.co2     1 <0>        -0.7768
     36 O6          0.4858  -11.4542    8.5464 O.co2     1 <0>        -0.7559
@<TRIPOS>BOND
     1    1    6 ar
     2    1    2 ar
     3    1   23 1
     4    2    3 ar
     5    2   24 1
     6    3    4 ar
     7    3   21 1
     8    4    5 ar
     9    4   25 1
    10    5    6 ar
    11    5   26 1
    12    6    7 1
    13    7    8 1
    14    7   27 1
    15    7   28 1
    16    8    9 1
    17    9   14 ar
    18    9   10 ar
    19   10   11 ar
    20   10   29 1
    21   11   12 ar
    22   11   30 1
    23   12   17 1
    24   12   13 ar
    25   13   14 ar
    26   13   15 1
    27   14   31 1
    28   15   16 1
    29   16   17 2
    30   16   32 1
    31   17   18 1
    32   18   19 1
    33   18   33 1
    34   18   34 1
    35   19   20 2
    36   19   35 1
    37   21   22 2
    38   21   36 1
@<TRIPOS>MOLECULE
ZINC26542654
   32    34     0     0     0
SMALL
USER_CHARGES
4-[[(Z)-(2,4-dioxochroman-3-ylidene)methyl]amino]benzoic acid
@<TRIPOS>ATOM
      1 C1          6.0234    9.8839   -1.4624 C.ar      1 <0>        -0.1701
      2 C2          7.0581    9.0429   -1.8410 C.ar      1 <0>        -0.0783
      3 C3          6.9676    7.6821   -1.6401 C.ar      1 <0>        -0.1615
      4 C4          5.8315    7.1340   -1.0504 C.ar      1 <0>         0.1828
      5 C5          4.7942    7.9885   -0.6570 C.ar      1 <0>        -0.2052
      6 C6          4.8923    9.3633   -0.8715 C.ar      1 <0>        -0.0432
      7 C7          3.5941    7.4247    0.0031 C.2       1 <0>         0.4410
      8 O1          2.7351    8.1238    0.5090 O.3       1 <0>        -0.5165
      9 C8          3.5244    5.9383    0.0021 C.2       1 <0>        -0.4981
     10 C9          2.3338    5.2322    0.0088 C.2       1 <0>         0.2651
     11 N1          2.3494    3.8831    0.0014 N.2       1 <0>        -0.5987
     12 C10         1.1515    3.1727    0.0081 C.ar      1 <0>         0.1442
     13 C11         1.1695    1.7810    0.0005 C.ar      1 <0>        -0.1537
     14 C12        -0.0126    1.0758    0.0080 C.ar      1 <0>        -0.0667
     15 C13        -1.2323    1.7591    0.0174 C.ar      1 <0>        -0.1698
     16 C14        -1.2467    3.1571    0.0304 C.ar      1 <0>        -0.0523
     17 C15        -0.0609    3.8561    0.0228 C.ar      1 <0>        -0.2224
     18 C16        -2.5007    1.0069    0.0198 C.2       1 <0>         0.4982
     19 O2         -2.4866   -0.2080    0.0135 O.co2     1 <0>        -0.6473
     20 O3         -3.6754    1.6670    0.0289 O.co2     1 <0>        -0.7716
     21 C17         4.8587    5.2880   -0.0131 C.2       1 <0>         0.5513
     22 O4          5.1228    4.3509    0.7162 O.2       1 <0>        -0.4653
     23 O5          5.7650    5.7926   -0.8799 O.3       1 <0>        -0.3132
     24 H1          6.1036   10.9477   -1.6304 H         1 <0>         0.1225
     25 H2          7.9441    9.4579   -2.2983 H         1 <0>         0.1250
     26 H3          7.7811    7.0386   -1.9409 H         1 <0>         0.1316
     27 H4          4.0851   10.0171   -0.5760 H         1 <0>         0.1326
     28 H5          1.3749    5.7711    0.0202 H         1 <0>         0.0835
     29 H6          2.1120    1.2537   -0.0110 H         1 <0>         0.1118
     30 H7          0.0021   -0.0041    0.0020 H         1 <0>         0.1175
     31 H8         -2.1871    3.6880    0.0422 H         1 <0>         0.1176
     32 H9         -0.0714    4.9360    0.0287 H         1 <0>         0.1092
@<TRIPOS>BOND
     1    1    6 ar
     2    1    2 ar
     3    1   24 1
     4    2    3 ar
     5    2   25 1
     6    3    4 ar
     7    3   26 1
     8    4   23 1
     9    4    5 ar
    10    5    6 ar
    11    5    7 1
    12    6   27 1
    13    7    8 1
    14    7    9 2
    15    9   10 1
    16    9   21 1
    17   10   11 2
    18   10   28 1
    19   11   12 1
    20   12   17 ar
    21   12   13 ar
    22   13   14 ar
    23   13   29 1
    24   14   15 ar
    25   14   30 1
    26   15   16 ar
    27   15   18 1
    28   16   17 ar
    29   16   31 1
    30   17   32 1
    31   18   19 2
    32   18   20 1
    33   21   22 2
    34   21   23 1
@<TRIPOS>MOLECULE
ZINC40174355
   28    29     0     0     0
SMALL
USER_CHARGES

@<TRIPOS>ATOM
      1 C1         -0.0187    1.5258    0.0104 C.3       1 <0>        -0.1716
      2 C2          0.0021   -0.0041    0.0020 C.3       1 <0>         0.0881
      3 N1         -1.3723   -0.5112    0.0124 N.pl3     1 <0>        -0.4976
      4 C3         -1.9628   -0.7336    1.1916 C.2       1 <0>         0.1699
      5 C4         -3.2570   -1.2109    1.2888 C.2       1 <0>        -0.3276
      6 C5         -4.0088   -1.4828    0.0529 C.2       1 <0>         0.4209
      7 O1         -5.1514   -1.9036    0.0843 O.2       1 <0>        -0.4716
      8 C6         -3.3185   -1.2233   -1.2276 C.ar      1 <0>        -0.1977
      9 C7         -2.0023   -0.7328   -1.1939 C.ar      1 <0>         0.1756
     10 C8         -1.3405   -0.4786   -2.3916 C.ar      1 <0>        -0.1451
     11 C9         -1.9904   -0.7075   -3.6009 C.ar      1 <0>        -0.0874
     12 C10        -3.3038   -1.1913   -3.6177 C.ar      1 <0>        -0.1278
     13 C11        -3.9561   -1.4532   -2.4466 C.ar      1 <0>        -0.0564
     14 C12        -1.2901   -0.4379   -4.8740 C.2       1 <0>         0.5240
     15 O2         -0.1431   -0.0150   -4.8632 O.co2     1 <0>        -0.6889
     16 O3         -1.8579   -0.6379   -5.9382 O.co2     1 <0>        -0.6862
     17 C13        -3.8701   -1.4427    2.6013 C.2       1 <0>         0.5434
     18 O4         -3.2353   -1.2134    3.6224 O.co2     1 <0>        -0.7160
     19 O5         -5.0164   -1.8654    2.6753 O.co2     1 <0>        -0.6739
     20 H1          1.0039    1.9031    0.0027 H         1 <0>         0.0689
     21 H2         -0.5459    1.8868   -0.8726 H         1 <0>         0.0653
     22 H3         -0.5289    1.8773    0.9072 H         1 <0>         0.0608
     23 H4          0.5123   -0.3556   -0.8948 H         1 <0>         0.0942
     24 H5          0.5293   -0.3651    0.8851 H         1 <0>         0.0866
     25 H6         -1.4104   -0.5342    2.0979 H         1 <0>         0.1595
     26 H7         -0.3273   -0.1049   -2.3826 H         1 <0>         0.1349
     27 H8         -3.8005   -1.3658   -4.5606 H         1 <0>         0.1281
     28 H9         -4.9693   -1.8268   -2.4644 H         1 <0>         0.1276
@<TRIPOS>BOND
     1    1    2 1
     2    1   20 1
     3    1   21 1
     4    1   22 1
     5    2    3 1
     6    2   23 1
     7    2   24 1
     8    3    9 1
     9    3    4 1
    10    4    5 2
    11    4   25 1
    12    5    6 1
    13    5   17 1
    14    6    7 2
    15    6    8 1
    16    8   13 ar
    17    8    9 ar
    18    9   10 ar
    19   10   11 ar
    20   10   26 1
    21   11   12 ar
    22   11   14 1
    23   12   13 ar
    24   12   27 1
    25   13   28 1
    26   14   15 2
    27   14   16 1
    28   17   18 2
    29   17   19 1
@<TRIPOS>MOLECULE
ZINC57978889
   41    41     0     0     0
SMALL
USER_CHARGES

@<TRIPOS>ATOM
      1 C1         -0.0187    1.5258    0.0104 C.3       1 <0>        -0.1377
      2 C2          0.0021   -0.0041    0.0020 C.3       1 <0>        -0.0510
      3 C3          0.7421   -0.5109    1.2415 C.3       1 <0>        -0.1418
      4 C4         -1.4117   -0.5257    0.0127 C.ar      1 <0>        -0.1162
      5 C5         -2.2585   -0.2034    1.0575 C.ar      1 <0>        -0.0956
      6 C6         -3.5546   -0.6806    1.0698 C.ar      1 <0>        -0.2124
      7 C7         -4.0069   -1.4836    0.0326 C.ar      1 <0>         0.1223
      8 C8         -3.1558   -1.8050   -1.0144 C.ar      1 <0>        -0.0743
      9 C9         -1.8617   -1.3209   -1.0247 C.ar      1 <0>        -0.0611
     10 C10        -3.6438   -2.6769   -2.1426 C.3       1 <0>        -0.0526
     11 C11        -3.6014   -4.1435   -1.7087 C.3       1 <0>        -0.1490
     12 H1         -4.1703   -4.2663   -0.7871 H         1 <0>         0.0529
     13 C12        -4.2125   -5.0177   -2.8056 C.3       1 <0>        -0.0638
     14 C13        -4.2843   -6.4674   -2.3217 C.3       1 <0>        -0.1738
     15 C14        -4.8861   -7.3284   -3.4021 C.2       1 <0>         0.4942
     16 O1         -5.2262   -6.8290   -4.4611 O.co2     1 <0>        -0.7064
     17 O2         -5.0331   -8.5246   -3.2172 O.co2     1 <0>        -0.7225
     18 C15        -2.1712   -4.5571   -1.4751 C.2       1 <0>         0.5119
     19 O3         -1.8229   -4.9531   -0.3759 O.co2     1 <0>        -0.7124
     20 O4         -1.3624   -4.4958   -2.3854 O.co2     1 <0>        -0.7060
     21 O5         -5.2816   -1.9547    0.0427 O.3       1 <0>        -0.3052
     22 C16        -6.1016   -1.5837    1.1527 C.3       1 <0>         0.0309
     23 H2          1.0039    1.9031    0.0027 H         1 <0>         0.0496
     24 H3         -0.5459    1.8868   -0.8726 H         1 <0>         0.0531
     25 H4         -0.5289    1.8773    0.9072 H         1 <0>         0.0513
     26 H5          0.5123   -0.3556   -0.8948 H         1 <0>         0.0765
     27 H6          0.2319   -0.1594    2.1383 H         1 <0>         0.0506
     28 H7          0.7568   -1.6008    1.2356 H         1 <0>         0.0621
     29 H8          1.7647   -0.1336    1.2338 H         1 <0>         0.0493
     30 H9         -1.9059    0.4216    1.8646 H         1 <0>         0.1119
     31 H10        -4.2153   -0.4293    1.8864 H         1 <0>         0.1175
     32 H11        -1.1999   -1.5675   -1.8417 H         1 <0>         0.1288
     33 H12        -4.6676   -2.4027   -2.3970 H         1 <0>         0.0583
     34 H13        -3.0031   -2.5369   -3.0133 H         1 <0>         0.0698
     35 H14        -5.2164   -4.6617   -3.0369 H         1 <0>         0.0396
     36 H15        -3.5927   -4.9638   -3.7007 H         1 <0>         0.0581
     37 H16        -3.2803   -6.8234   -2.0904 H         1 <0>         0.0592
     38 H17        -4.9040   -6.5213   -1.4266 H         1 <0>         0.0455
     39 H18        -5.6485   -1.9450    2.0759 H         1 <0>         0.0497
     40 H19        -6.1903   -0.4981    1.1920 H         1 <0>         0.0454
     41 H20        -7.0914   -2.0252    1.0367 H         1 <0>         0.0931
@<TRIPOS>BOND
     1    1    2 1
     2    1   23 1
     3    1   24 1
     4    1   25 1
     5    2    3 1
     6    2    4 1
     7    2   26 1
     8    3   27 1
     9    3   28 1
    10    3   29 1
    11    4    9 ar
    12    4    5 ar
    13    5    6 ar
    14    5   30 1
    15    6    7 ar
    16    6   31 1
    17    7    8 ar
    18    7   21 1
    19    8    9 ar
    20    8   10 1
    21    9   32 1
    22   10   11 1
    23   10   33 1
    24   10   34 1
    25   11   12 1
    26   11   13 1
    27   11   18 1
    28   13   14 1
    29   13   35 1
    30   13   36 1
    31   14   15 1
    32   14   37 1
    33   14   38 1
    34   15   16 2
    35   15   17 1
    36   18   19 2
    37   18   20 1
    38   21   22 1
    39   22   39 1
    40   22   40 1
    41   22   41 1
@<TRIPOS>MOLECULE
ZINC63849087
   36    37     0     0     0
SMALL
USER_CHARGES

@<TRIPOS>ATOM
      1 C1         -0.0187    1.5258    0.0104 C.3       1 <0>        -0.1405
      2 C2          0.0021   -0.0041    0.0020 C.3       1 <0>        -0.1162
      3 C3          0.7182   -0.4975   -1.2568 C.3       1 <0>        -0.6013
      4 S1          0.7428   -2.3113   -1.2668 S.o2      1 <0>         2.5104
      5 O1          1.5760   -2.7952   -0.2223 O.2       1 <0>        -1.0404
      6 O2         -0.5740   -2.8177   -1.4366 O.2       1 <0>        -1.0406
      7 N1          1.5354   -2.7185   -2.6626 N.2       1 <0>        -1.1100
      8 C4          1.7332   -4.0658   -2.9877 C.ar      1 <0>         0.1976
      9 C5          1.2597   -5.0607   -2.1427 C.ar      1 <0>        -0.2114
     10 C6          1.4551   -6.3896   -2.4632 C.ar      1 <0>        -0.1302
     11 C7          2.1247   -6.7310   -3.6307 C.ar      1 <0>         0.1877
     12 C8          2.5978   -5.7361   -4.4761 C.ar      1 <0>        -0.2174
     13 C9          2.3978   -4.4072   -4.1582 C.ar      1 <0>        -0.1353
     14 N2          2.3233   -8.0783   -3.9554 N.2       1 <0>        -1.0924
     15 S2          3.1219   -8.4854   -5.3479 S.o2      1 <0>         2.6035
     16 O3          2.2993   -8.0620   -6.4264 O.2       1 <0>        -1.0328
     17 O4          4.4625   -8.0407   -5.1921 O.2       1 <0>        -1.0331
     18 C10         3.1801  -10.2450   -5.4196 C.2       1 <0>        -0.6359
     19 C11         2.2966  -11.1061   -5.9810 C.2       1 <0>        -0.0643
     20 C12         2.5502  -12.4634   -5.9167 C.2       1 <0>        -0.1740
     21 C13         3.6750  -12.8931   -5.2942 C.2       1 <0>        -0.1879
     22 S3          4.4220  -11.3558   -4.7785 S.3       1 <0>         0.1290
     23 H1          1.0039    1.9031    0.0027 H         1 <0>         0.0536
     24 H2         -0.5459    1.8868   -0.8726 H         1 <0>         0.0536
     25 H3         -0.5289    1.8773    0.9072 H         1 <0>         0.0500
     26 H4          0.5293   -0.3651    0.8851 H         1 <0>         0.0687
     27 H5         -1.0205   -0.3814    0.0098 H         1 <0>         0.0687
     28 H6          0.1910   -0.1364   -2.1398 H         1 <0>         0.1137
     29 H7          1.7408   -0.1202   -1.2645 H         1 <0>         0.1138
     30 H8          0.7389   -4.7952   -1.2346 H         1 <0>         0.0877
     31 H9          1.0875   -7.1634   -1.8055 H         1 <0>         0.0939
     32 H10         3.1186   -6.0016   -5.3842 H         1 <0>         0.0823
     33 H11         2.7622   -3.6334   -4.8176 H         1 <0>         0.0936
     34 H12         1.4075  -10.7373   -6.4708 H         1 <0>         0.1419
     35 H13         1.8623  -13.1709   -6.3556 H         1 <0>         0.1309
     36 H14         4.0294  -13.9032   -5.1508 H         1 <0>         0.1830
@<TRIPOS>BOND
     1    1    2 1
     2    1   23 1
     3    1   24 1
     4    1   25 1
     5    2    3 1
     6    2   26 1
     7    2   27 1
     8    3    4 1
     9    3   28 1
    10    3   29 1
    11    4    5 2
    12    4    6 2
    13    4    7 1
    14    7    8 1
    15    8   13 ar
    16    8    9 ar
    17    9   10 ar
    18    9   30 1
    19   10   11 ar
    20   10   31 1
    21   11   12 ar
    22   11   14 1
    23   12   13 ar
    24   12   32 1
    25   13   33 1
    26   14   15 1
    27   15   16 2
    28   15   17 2
    29   15   18 1
    30   18   22 1
    31   18   19 2
    32   19   20 1
    33   19   34 1
    34   20   21 2
    35   20   35 1
    36   21   22 1
    37   21   36 1
@<TRIPOS>MOLECULE
ZINC12653137
   36    36     0     0     0
SMALL
USER_CHARGES
(1S,2S,3S,6S)-3,4-dimethyl-6-(2-methylprop-1-enyl)cyclohex-4-ene-1,2-dicarboxylic acid
@<TRIPOS>ATOM
      1 C1          0.7014    1.2112    0.0782 C.3       1 <0>        -0.1434
      2 C2          0.8657   -0.2918    0.3122 C.3       1 <0>        -0.0335
      3 H1          1.6504   -0.6754   -0.3398 H         1 <0>         0.0617
      4 C3          1.2534   -0.5385    1.7718 C.3       1 <0>        -0.0960
      5 H2          0.5698   -0.0004    2.4285 H         1 <0>         0.0596
      6 C4          1.1588   -2.0439    2.0512 C.3       1 <0>        -0.0991
      7 H3          1.7312   -2.5920    1.3029 H         1 <0>         0.0567
      8 C5         -0.3125   -2.4581    1.9784 C.3       1 <0>        -0.0164
      9 H4         -0.3827   -3.5457    1.9908 H         1 <0>         0.0837
     10 C6         -0.9354   -1.9338    0.7178 C.2       1 <0>        -0.1499
     11 C7         -0.4261   -0.9882   -0.0014 C.2       1 <0>        -0.1219
     12 C8         -1.1779   -0.5605   -1.2354 C.3       1 <0>        -0.1171
     13 C9         -1.0482   -1.8993    3.1690 C.2       1 <0>        -0.0979
     14 C10        -1.7566   -2.6933    3.9330 C.2       1 <0>        -0.1660
     15 C11        -1.9735   -4.1295    3.5313 C.3       1 <0>        -0.1071
     16 C12        -2.3547   -2.1706    5.2137 C.3       1 <0>        -0.0999
     17 C13         1.7008   -2.3390    3.4260 C.2       1 <0>         0.4922
     18 O1          2.1209   -1.4402    4.1155 O.co2     1 <0>        -0.6120
     19 C14         2.6653   -0.0673    2.0075 C.2       1 <0>         0.4838
     20 O2          3.5083   -0.8481    2.3811 O.co2     1 <0>        -0.6091
     21 H5          1.6403    1.7183    0.3008 H         1 <0>         0.0979
     22 H6          0.4300    1.3894   -0.9623 H         1 <0>         0.0286
     23 H7         -0.0830    1.5967    0.7295 H         1 <0>         0.0369
     24 H8         -1.8671   -2.3726    0.3928 H         1 <0>         0.0878
     25 H9         -0.8481   -1.1563   -2.0865 H         1 <0>         0.0535
     26 H10        -2.2464   -0.7096   -1.0798 H         1 <0>         0.0491
     27 H11        -0.9831    0.4937   -1.4325 H         1 <0>         0.0648
     28 H12        -0.9915   -0.8441    3.3923 H         1 <0>         0.0983
     29 H13        -1.5509   -4.2974    2.5407 H         1 <0>         0.0679
     30 H14        -1.4844   -4.7859    4.2510 H         1 <0>         0.0586
     31 H15        -3.0420   -4.3439    3.5116 H         1 <0>         0.0431
     32 H16        -3.3502   -1.7739    5.0144 H         1 <0>         0.0479
     33 H17        -2.4251   -2.9810    5.9392 H         1 <0>         0.0527
     34 H18        -1.7215   -1.3787    5.6138 H         1 <0>         0.0578
     35 O3          1.7168   -3.6004    3.8845 O.co2     1 <0>        -0.8093
     36 O4          2.9863    1.2198    1.8024 O.co2     1 <0>        -0.8043
@<TRIPOS>BOND
     1    1    2 1
     2    1   21 1
     3    1   22 1
     4    1   23 1
     5    2    3 1
     6    2   11 1
     7    2    4 1
     8    4    5 1
     9    4    6 1
    10    4   19 1
    11    6    7 1
    12    6    8 1
    13    6   17 1
    14    8    9 1
    15    8   10 1
    16    8   13 1
    17   10   11 2
    18   10   24 1
    19   11   12 1
    20   12   25 1
    21   12   26 1
    22   12   27 1
    23   13   14 2
    24   13   28 1
    25   14   15 1
    26   14   16 1
    27   15   29 1
    28   15   30 1
    29   15   31 1
    30   16   32 1
    31   16   33 1
    32   16   34 1
    33   17   18 2
    34   17   35 1
    35   19   20 2
    36   19   36 1
@<TRIPOS>MOLECULE
ZINC35588067
   36    38     0     0     0
SMALL
USER_CHARGES

@<TRIPOS>ATOM
      1 C1          1.3155    1.3746    0.0426 C.3       1 <0>        -0.1002
      2 C2          1.0134   -0.1017    0.0267 C.2       1 <0>        -0.0232
      3 C3          0.9528   -0.7695   -1.1360 C.2       1 <0>        -0.2220
      4 S1          0.5770   -2.4399   -0.6389 S.3       1 <0>         0.0142
      5 C4          0.5113   -2.1975    1.1166 C.ar      1 <0>         0.1675
      6 C5          0.7906   -0.8187    1.2689 C.ar      1 <0>        -0.3034
      7 C6          0.8072   -0.3411    2.6079 C.ar      1 <0>         0.4857
      8 O1          1.0592    0.9647    2.8651 O.3       1 <0>        -0.6693
      9 N1          0.5744   -1.1818    3.5972 N.ar      1 <0>        -0.6034
     10 C7          0.3226   -2.4711    3.3853 C.ar      1 <0>         0.4215
     11 N2          0.2836   -2.9716    2.1552 N.ar      1 <0>        -0.5657
     12 C8          0.0697   -3.3607    4.5393 C.2       1 <0>        -0.0251
     13 C9          0.0958   -2.8585    5.8045 C.2       1 <0>         0.0415
     14 C10         0.0081   -3.7651    6.9563 C.ar      1 <0>        -0.1032
     15 C11         0.6266   -5.0213    6.9083 C.ar      1 <0>        -0.1066
     16 C12         0.5448   -5.8635    7.9802 C.ar      1 <0>        -0.0884
     17 C13        -0.1561   -5.4723    9.1259 C.ar      1 <0>        -0.1182
     18 C14        -0.7741   -4.2182    9.1750 C.ar      1 <0>        -0.0937
     19 C15        -0.6891   -3.3723    8.1062 C.ar      1 <0>        -0.1024
     20 C16        -0.2441   -6.3828   10.2826 C.2       1 <0>         0.5200
     21 O2          0.2957   -7.4795   10.2401 O.co2     1 <0>        -0.6877
     22 O3         -0.8569   -6.0413   11.2845 O.co2     1 <0>        -0.6892
     23 C17        -0.2027   -4.7503    4.3261 C.1       1 <0>         0.2818
     24 N3         -0.4187   -5.8527    4.1569 N.1       1 <0>        -0.4335
     25 C18         1.1540   -0.2343   -2.5303 C.3       1 <0>        -0.0475
     26 H1          2.3932    1.5243    0.1076 H         1 <0>         0.0597
     27 H2          0.9397    1.8323   -0.8725 H         1 <0>         0.0477
     28 H3          0.8321    1.8351    0.9042 H         1 <0>         0.0907
     29 H4          0.1809   -1.7933    5.9610 H         1 <0>         0.1629
     30 H5          1.1675   -5.3236    6.0237 H         1 <0>         0.1162
     31 H6          1.0213   -6.8321    7.9433 H         1 <0>         0.1269
     32 H7         -1.3150   -3.9173   10.0600 H         1 <0>         0.1288
     33 H8         -1.1628   -2.4025    8.1458 H         1 <0>         0.1241
     34 H9          2.2071   -0.3113   -2.8006 H         1 <0>         0.0628
     35 H10         0.5554   -0.8149   -3.2322 H         1 <0>         0.0606
     36 H11         0.8449    0.8103   -2.5667 H         1 <0>         0.0700
@<TRIPOS>BOND
     1    1    2 1
     2    1   26 1
     3    1   27 1
     4    1   28 1
     5    2    6 1
     6    2    3 2
     7    3    4 1
     8    3   25 1
     9    4    5 1
    10    5   11 ar
    11    5    6 ar
    12    6    7 ar
    13    7    8 1
    14    7    9 ar
    15    9   10 ar
    16   10   11 ar
    17   10   12 1
    18   12   13 2
    19   12   23 1
    20   13   14 1
    21   13   29 1
    22   14   19 ar
    23   14   15 ar
    24   15   16 ar
    25   15   30 1
    26   16   17 ar
    27   16   31 1
    28   17   18 ar
    29   17   20 1
    30   18   19 ar
    31   18   32 1
    32   19   33 1
    33   20   21 2
    34   20   22 1
    35   23   24 3
    36   25   34 1
    37   25   35 1
    38   25   36 1
@<TRIPOS>MOLECULE
ZINC43317949
   28    28     0     0     0
SMALL
USER_CHARGES

@<TRIPOS>ATOM
      1 C1         -0.1553    1.4192   -0.0629 C.3       1 <0>         0.0343
      2 O1         -0.1196   -0.0093   -0.0633 O.3       1 <0>        -0.3242
      3 C2          0.5265   -0.6102   -1.0971 C.ar      1 <0>         0.1699
      4 C3          1.1188    0.1608   -2.0875 C.ar      1 <0>        -0.3107
      5 C4          1.7767   -0.4482   -3.1393 C.ar      1 <0>        -0.0395
      6 C5          1.8465   -1.8269   -3.2087 C.ar      1 <0>        -0.1245
      7 C6          1.2544   -2.6038   -2.2195 C.ar      1 <0>         0.3255
      8 C7          0.5988   -1.9928   -1.1596 C.ar      1 <0>        -0.2819
      9 N1          1.3241   -3.9977   -2.2892 N.2       1 <0>        -1.0740
     10 S1          0.7598   -4.9187   -1.0340 S.o2      1 <0>         2.5249
     11 O2          1.5372   -4.5198    0.0866 O.2       1 <0>        -1.0341
     12 O3         -0.6478   -4.7239   -1.0454 O.2       1 <0>        -1.0343
     13 C8          1.1577   -6.6277   -1.4940 C.3       1 <0>        -0.5474
     14 C9          0.6768   -7.5770   -0.3947 C.3       1 <0>        -0.1769
     15 C10         1.0074   -8.9967   -0.7768 C.2       1 <0>         0.5022
     16 O4          1.5751   -9.2279   -1.8308 O.co2     1 <0>        -0.6925
     17 O5          0.7072   -9.9142   -0.0321 O.co2     1 <0>        -0.7113
     18 Cl1         2.6731   -2.5885   -4.5316 Cl        1 <0>        -0.0955
     19 H1          0.8627    1.8081   -0.0377 H         1 <0>         0.0480
     20 H2         -0.6561    1.7704   -0.9650 H         1 <0>         0.0479
     21 H3         -0.6995    1.7689    0.8144 H         1 <0>         0.0853
     22 H4          1.0653    1.2383   -2.0363 H         1 <0>         0.1110
     23 H5          2.2368    0.1543   -3.9086 H         1 <0>         0.1125
     24 H6          0.1421   -2.5938   -0.3872 H         1 <0>         0.1168
     25 H7          0.6611   -6.8766   -2.4318 H         1 <0>         0.1173
     26 H8          2.2361   -6.7295   -1.6158 H         1 <0>         0.1175
     27 H9          1.1734   -7.3281    0.5432 H         1 <0>         0.0668
     28 H10        -0.4016   -7.4752   -0.2729 H         1 <0>         0.0667
@<TRIPOS>BOND
     1    1    2 1
     2    1   19 1
     3    1   20 1
     4    1   21 1
     5    2    3 1
     6    3    8 ar
     7    3    4 ar
     8    4    5 ar
     9    4   22 1
    10    5    6 ar
    11    5   23 1
    12    6    7 ar
    13    6   18 1
    14    7    8 ar
    15    7    9 1
    16    8   24 1
    17    9   10 1
    18   10   11 2
    19   10   12 2
    20   10   13 1
    21   13   14 1
    22   13   25 1
    23   13   26 1
    24   14   15 1
    25   14   27 1
    26   14   28 1
    27   15   16 2
    28   15   17 1
@<TRIPOS>MOLECULE
ZINC12504472
   36    35     0     0     0
SMALL
USER_CHARGES

@<TRIPOS>ATOM
      1 C1          0.7971    1.8553   -0.0905 C.3       1 <0>        -0.1272
      2 C2          0.9546    0.3593   -0.1807 C.2       1 <0>        -0.1359
      3 C3          1.4049   -0.3151    0.8481 C.2       1 <0>        -0.1633
      4 C4          1.7654    0.4050    2.1219 C.3       1 <0>        -0.0944
      5 C5          0.9957   -0.2115    3.2916 C.3       1 <0>        -0.0597
      6 C6          1.3561    0.5086    4.5654 C.2       1 <0>        -0.1668
      7 C7          0.6054    1.4916    4.9970 C.2       1 <0>        -0.1157
      8 C8          1.0375    2.3007    6.1927 C.3       1 <0>         0.0609
      9 S1          1.3452    4.0145    5.6839 S.3       1 <0>        -0.9057
     10 P1         -0.5949    4.8268    5.4182 P.3       1 <0>         2.1804
     11 O1         -1.3454    4.0232    4.3329 O.2       1 <0>        -1.0161
     12 O2         -1.3740    4.7458    6.7500 O.3       1 <0>        -1.0318
     13 O3         -0.4744    6.3654    4.9596 O.3       1 <0>        -1.0653
     14 P2         -1.5454    7.5135    4.6037 P.3       1 <0>         2.1979
     15 O4         -2.7268    6.8900    3.7852 O.2       1 <0>        -1.1871
     16 O5         -2.1008    8.1385    5.9286 O.3       1 <0>        -1.1930
     17 O6         -0.8510    8.6293    3.7510 O.3       1 <0>        -1.1919
     18 C9          2.5802    0.0980    5.3426 C.3       1 <0>        -0.1043
     19 C10         0.5941   -0.3608   -1.4545 C.3       1 <0>        -0.1103
     20 H1          1.7649    2.3106    0.1197 H         1 <0>         0.0661
     21 H2          0.4132    2.2380   -1.0362 H         1 <0>         0.0556
     22 H3          0.0991    2.0995    0.7104 H         1 <0>         0.0842
     23 H4          1.5178   -1.3873    0.7834 H         1 <0>         0.0993
     24 H5          2.8363    0.3111    2.3018 H         1 <0>         0.0640
     25 H6          1.5035    1.4591    2.0299 H         1 <0>         0.0832
     26 H7         -0.0753   -0.1176    3.1117 H         1 <0>         0.0684
     27 H8          1.2575   -1.2656    3.3836 H         1 <0>         0.0539
     28 H9         -0.3231    1.7221    4.4960 H         1 <0>         0.1363
     29 H10         0.2516    2.2814    6.9478 H         1 <0>         0.0848
     30 H11         1.9511    1.8755    6.6083 H         1 <0>         0.0921
     31 H12         3.4201    0.7323    5.0595 H         1 <0>         0.0591
     32 H13         2.3864    0.2066    6.4098 H         1 <0>         0.0597
     33 H14         2.8194   -0.9421    5.1209 H         1 <0>         0.0483
     34 H15         1.4689   -0.4126   -2.1026 H         1 <0>         0.0578
     35 H16         0.2567   -1.3700   -1.2183 H         1 <0>         0.0551
     36 H17        -0.2040    0.1793   -1.9638 H         1 <0>         0.0612
@<TRIPOS>BOND
     1    1    2 1
     2    1   20 1
     3    1   21 1
     4    1   22 1
     5    2    3 2
     6    2   19 1
     7    3    4 1
     8    3   23 1
     9    4    5 1
    10    4   24 1
    11    4   25 1
    12    5    6 1
    13    5   26 1
    14    5   27 1
    15    6    7 2
    16    6   18 1
    17    7    8 1
    18    7   28 1
    19    8    9 1
    20    8   29 1
    21    8   30 1
    22    9   10 1
    23   10   11 2
    24   10   12 1
    25   10   13 1
    26   13   14 1
    27   14   15 2
    28   14   16 1
    29   14   17 1
    30   18   31 1
    31   18   32 1
    32   18   33 1
    33   19   34 1
    34   19   35 1
    35   19   36 1
@<TRIPOS>MOLECULE
ZINC65354030
   26    27     0     0     0
SMALL
USER_CHARGES

@<TRIPOS>ATOM
      1 C1         -0.0169    1.3946    0.0097 C.ar      1 <0>        -0.0580
      2 C2          1.1659    2.1030    0.0022 C.ar      1 <0>        -0.1839
      3 C3          2.3791    1.4358   -0.0134 C.ar      1 <0>         0.1725
      4 C4          2.4113    0.0372   -0.0213 C.ar      1 <0>        -0.0751
      5 C5          1.2217   -0.6827   -0.0133 C.ar      1 <0>        -0.0421
      6 C6          0.0021   -0.0041    0.0020 C.ar      1 <0>        -0.1620
      7 C7         -1.2635   -0.7599    0.0106 C.2       1 <0>         0.5292
      8 O1         -2.3316   -0.1640    0.0244 O.co2     1 <0>        -0.6985
      9 O2         -1.2456   -1.9828    0.0038 O.co2     1 <0>        -0.6946
     10 C8          3.7099   -0.6753   -0.0385 C.ar      1 <0>         0.0183
     11 C9          4.0701   -1.4467   -1.1383 C.ar      1 <0>        -0.1530
     12 C10         5.2838   -2.1104   -1.1501 C.ar      1 <0>         0.0793
     13 C11         6.1490   -2.0128   -0.0683 C.ar      1 <0>        -0.1728
     14 C12         5.8092   -1.2540    1.0297 C.ar      1 <0>        -0.0638
     15 C13         4.5899   -0.5709    1.0564 C.ar      1 <0>        -0.1258
     16 C14         4.2250    0.2463    2.2239 C.2       1 <0>         0.5202
     17 O3          4.9922    0.3344    3.1730 O.co2     1 <0>        -0.6969
     18 O4          3.1542    0.8380    2.2459 O.co2     1 <0>        -0.6553
     19 F1          5.6294   -2.8586   -2.2207 F         1 <0>        -0.1529
     20 F2          3.5340    2.1368   -0.0216 F         1 <0>        -0.1454
     21 H1         -0.9600    1.9206    0.0261 H         1 <0>         0.1262
     22 H2          1.1460    3.1828    0.0082 H         1 <0>         0.1182
     23 H3          1.2414   -1.7625   -0.0197 H         1 <0>         0.1259
     24 H4          3.4020   -1.5279   -1.9830 H         1 <0>         0.1311
     25 H5          7.0939   -2.5354   -0.0878 H         1 <0>         0.1238
     26 H6          6.4866   -1.1831    1.8679 H         1 <0>         0.1356
@<TRIPOS>BOND
     1    1    6 ar
     2    1    2 ar
     3    1   21 1
     4    2    3 ar
     5    2   22 1
     6    3    4 ar
     7    3   20 1
     8    4    5 ar
     9    4   10 1
    10    5    6 ar
    11    5   23 1
    12    6    7 1
    13    7    8 2
    14    7    9 1
    15   10   15 ar
    16   10   11 ar
    17   11   12 ar
    18   11   24 1
    19   12   13 ar
    20   12   19 1
    21   13   14 ar
    22   13   25 1
    23   14   15 ar
    24   14   26 1
    25   15   16 1
    26   16   17 2
    27   16   18 1
@<TRIPOS>MOLECULE
ZINC05024160
   38    39     0     0     0
SMALL
USER_CHARGES
4-[(2,5-dimethoxyphenyl)carbamoyl]benzene-1,3-dicarboxylic acid
@<TRIPOS>ATOM
      1 C1         -8.6680   -1.4607    0.2362 C.3       1 <0>         0.0307
      2 O1         -7.4686   -0.7190    0.4673 O.3       1 <0>        -0.3112
      3 C2         -6.3104   -1.2569    0.0001 C.ar      1 <0>         0.1153
      4 C3         -6.3306   -2.4734   -0.6666 C.ar      1 <0>        -0.2012
      5 C4         -5.1551   -3.0234   -1.1424 C.ar      1 <0>        -0.1539
      6 C5         -3.9531   -2.3611   -0.9549 C.ar      1 <0>         0.0564
      7 C6         -3.9294   -1.1394   -0.2859 C.ar      1 <0>         0.1862
      8 C7         -5.1099   -0.5921    0.1953 C.ar      1 <0>        -0.1218
      9 N1         -2.7160   -0.4681   -0.0945 N.am      1 <0>        -0.6731
     10 C8         -2.6829    0.8792   -0.1013 C.2       1 <0>         0.5469
     11 O2         -3.7146    1.5119   -0.2126 O.2       1 <0>        -0.4577
     12 C9         -1.3894    1.5888    0.0267 C.ar      1 <0>        -0.1325
     13 C10        -0.1990    0.8679    0.0584 C.ar      1 <0>        -0.1134
     14 C11         1.0084    1.5275    0.1720 C.ar      1 <0>        -0.0998
     15 C12         1.0435    2.9207    0.2607 C.ar      1 <0>        -0.0965
     16 C13        -0.1429    3.6532    0.2358 C.ar      1 <0>        -0.0702
     17 C14        -1.3620    2.9928    0.1219 C.ar      1 <0>        -0.0509
     18 C15        -2.6234    3.7631    0.0950 C.2       1 <0>         0.5059
     19 O3         -3.3486    3.7068   -0.8777 O.co2     1 <0>        -0.6077
     20 C16         2.3410    3.6204    0.3816 C.2       1 <0>         0.4941
     21 O4          2.3726    4.8320    0.4588 O.co2     1 <0>        -0.6276
     22 O5         -2.7966   -2.9035   -1.4233 O.3       1 <0>        -0.3149
     23 C17        -2.8958   -4.1585   -2.0995 C.3       1 <0>         0.0325
     24 H1         -9.5158   -0.9212    0.6583 H         1 <0>         0.0952
     25 H2         -8.8157   -1.5876   -0.8363 H         1 <0>         0.0511
     26 H3         -8.5873   -2.4389    0.7101 H         1 <0>         0.0499
     27 H4         -7.2666   -2.9918   -0.8137 H         1 <0>         0.1254
     28 H5         -5.1739   -3.9708   -1.6607 H         1 <0>         0.1288
     29 H6         -5.0941    0.3529    0.7179 H         1 <0>         0.1609
     30 H7         -1.8990   -0.9726    0.0430 H         1 <0>         0.4107
     31 H8         -0.2197   -0.2097   -0.0105 H         1 <0>         0.1134
     32 H9          1.9295    0.9639    0.1920 H         1 <0>         0.1303
     33 H10        -0.1153    4.7306    0.3044 H         1 <0>         0.1321
     34 H11        -3.5430   -4.0519   -2.9701 H         1 <0>         0.0506
     35 H12        -1.9043   -4.4775   -2.4207 H         1 <0>         0.0963
     36 H13        -3.3159   -4.9032   -1.4235 H         1 <0>         0.0496
     37 O6         -2.9685    4.5274    1.1491 O.co2     1 <0>        -0.7656
     38 O7          3.4874    2.9139    0.4062 O.co2     1 <0>        -0.7642
@<TRIPOS>BOND
     1    1    2 1
     2    1   24 1
     3    1   25 1
     4    1   26 1
     5    2    3 1
     6    3    8 ar
     7    3    4 ar
     8    4    5 ar
     9    4   27 1
    10    5    6 ar
    11    5   28 1
    12    6    7 ar
    13    6   22 1
    14    7    8 ar
    15    7    9 1
    16    8   29 1
    17    9   10 am
    18    9   30 1
    19   10   11 2
    20   10   12 1
    21   12   17 ar
    22   12   13 ar
    23   13   14 ar
    24   13   31 1
    25   14   15 ar
    26   14   32 1
    27   15   16 ar
    28   15   20 1
    29   16   17 ar
    30   16   33 1
    31   17   18 1
    32   18   19 2
    33   18   37 1
    34   20   21 2
    35   20   38 1
    36   22   23 1
    37   23   34 1
    38   23   35 1
    39   23   36 1
@<TRIPOS>MOLECULE
ZINC13277260
   36    37     0     0     0
SMALL
USER_CHARGES
4-[5-chloro-4-[(4-hydroxy-4-oxo-butyl)amino]-6-oxo-pyridazin-1-yl]benzoic acid
@<TRIPOS>ATOM
      1 C1          0.9679   -0.2023    8.5188 C.ar      1 <0>        -0.0764
      2 C2          0.4600    0.1486    7.2880 C.ar      1 <0>        -0.1066
      3 C3          1.2949    0.1926    6.1760 C.ar      1 <0>         0.1297
      4 C4          2.6441   -0.1227    6.3022 C.ar      1 <0>        -0.1197
      5 C5          3.1600   -0.4685    7.5311 C.ar      1 <0>        -0.0704
      6 C6          2.3240   -0.5141    8.6503 C.ar      1 <0>        -0.1075
      7 C7          2.8717   -0.8911    9.9674 C.2       1 <0>         0.4911
      8 O1          2.1437   -0.9307   10.9393 O.co2     1 <0>        -0.6311
      9 N1          0.7765    0.5484    4.9297 N.am      1 <0>        -0.3660
     10 C8          0.0056    1.6478    4.8160 C.2       1 <0>         0.5323
     11 O2         -0.2393    2.3308    5.7985 O.2       1 <0>        -0.5195
     12 C9         -0.5142    2.0024    3.5628 C.2       1 <0>        -0.2452
     13 C10        -0.2217    1.2111    2.4666 C.2       1 <0>         0.2549
     14 C11         0.5859    0.0657    2.6348 C.2       1 <0>         0.0586
     15 N2          1.0614   -0.2396    3.8097 N.2       1 <0>        -0.1784
     16 N3         -0.7214    1.5364    1.2166 N.pl3     1 <0>        -0.6975
     17 C12        -0.4074    0.6935    0.0602 C.3       1 <0>         0.1022
     18 C13        -1.0776    1.2705   -1.1883 C.3       1 <0>        -0.1109
     19 C14        -0.7497    0.3903   -2.3961 C.3       1 <0>        -0.1544
     20 C15        -1.4098    0.9586   -3.6258 C.2       1 <0>         0.4592
     21 O3         -2.0744    1.9644   -3.5446 O.co2     1 <0>        -0.6409
     22 Cl1        -1.5095    3.4142    3.3896 Cl        1 <0>        -0.0313
     23 H1          0.3191   -0.2370    9.3815 H         1 <0>         0.1343
     24 H2         -0.5877    0.3897    7.1857 H         1 <0>         0.1234
     25 H3          3.2885   -0.0918    5.4360 H         1 <0>         0.1235
     26 H4          4.2084   -0.7085    7.6292 H         1 <0>         0.1380
     27 H5          0.8150   -0.5592    1.7842 H         1 <0>         0.2021
     28 H6         -1.2792    2.3222    1.1068 H         1 <0>         0.4127
     29 H7         -0.7761   -0.3170    0.2363 H         1 <0>         0.0732
     30 H8          0.6723    0.6659   -0.0868 H         1 <0>         0.0732
     31 H9         -2.1573    1.2981   -1.0413 H         1 <0>         0.0709
     32 H10        -0.7090    2.2810   -1.3645 H         1 <0>         0.0709
     33 H11         0.3300    0.3627   -2.5431 H         1 <0>         0.0684
     34 H12        -1.1184   -0.6203   -2.2199 H         1 <0>         0.0683
     35 O4          4.1793   -1.1914   10.0924 O.co2     1 <0>        -0.7550
     36 O5         -1.2596    0.3473   -4.8114 O.co2     1 <0>        -0.7758
@<TRIPOS>BOND
     1    1    6 ar
     2    1    2 ar
     3    1   23 1
     4    2    3 ar
     5    2   24 1
     6    3    4 ar
     7    3    9 1
     8    4    5 ar
     9    4   25 1
    10    5    6 ar
    11    5   26 1
    12    6    7 1
    13    7    8 2
    14    7   35 1
    15    9   15 1
    16    9   10 am
    17   10   11 2
    18   10   12 1
    19   12   13 2
    20   12   22 1
    21   13   14 1
    22   13   16 1
    23   14   15 2
    24   14   27 1
    25   16   17 1
    26   16   28 1
    27   17   18 1
    28   17   29 1
    29   17   30 1
    30   18   19 1
    31   18   31 1
    32   18   32 1
    33   19   20 1
    34   19   33 1
    35   19   34 1
    36   20   21 2
    37   20   36 1
@<TRIPOS>MOLECULE
ZINC27642222
   47    47     0     0     0
SMALL
USER_CHARGES
8-[(1R,2S,3R,5R)-2-(2-carboxyethyl)-3,5-dihydroxy-cyclopentyl]-6-oxo-octanoic acid
@<TRIPOS>ATOM
      1 C1         -6.5250   -8.3265   -1.6150 C.3       1 <0>        -0.0998
      2 C2         -5.8834   -6.9477   -1.3214 C.3       1 <0>         0.1266
      3 H1         -5.2612   -6.5460   -2.1347 H         1 <0>         0.0617
      4 C3         -5.1367   -7.1543    0.0127 C.3       1 <0>        -0.1067
      5 H2         -5.7298   -6.7939    0.8662 H         1 <0>         0.0786
      6 C4         -4.8515   -8.6620    0.1279 C.3       1 <0>        -0.1163
      7 H3         -5.2968   -9.0838    1.0410 H         1 <0>         0.0735
      8 C5         -5.4347   -9.3190   -1.1402 C.3       1 <0>         0.1160
      9 H4         -5.7821  -10.3531   -0.9992 H         1 <0>         0.0565
     10 O1         -4.4226   -9.4652   -2.1384 O.3       1 <0>        -0.6065
     11 C6         -3.3427   -8.9061    0.1980 C.3       1 <0>        -0.1020
     12 C7         -3.0773  -10.3938    0.4372 C.3       1 <0>        -0.1602
     13 C8         -1.5912  -10.6342    0.5062 C.2       1 <0>         0.4552
     14 O2         -0.8232   -9.7104    0.3774 O.co2     1 <0>        -0.6311
     15 O3         -1.1208  -11.8746    0.7109 O.co2     1 <0>        -0.7830
     16 C9         -3.8223   -6.3714    0.0043 C.3       1 <0>        -0.1145
     17 C10        -4.1222   -4.8711    0.0153 C.3       1 <0>        -0.1745
     18 C11        -2.8275   -4.0999    0.0070 C.2       1 <0>         0.3455
     19 O4         -1.7737   -4.6894   -0.0062 O.2       1 <0>        -0.4381
     20 C12        -2.8479   -2.5931    0.0153 C.3       1 <0>        -0.1699
     21 C13        -1.4126   -2.0635    0.0045 C.3       1 <0>        -0.1142
     22 C14        -1.4333   -0.5336    0.0129 C.3       1 <0>        -0.0967
     23 C15         0.0021   -0.0041    0.0020 C.3       1 <0>        -0.1594
     24 C16        -0.0184    1.5028    0.0103 C.2       1 <0>         0.4593
     25 O5         -1.0728    2.0926    0.0185 O.co2     1 <0>        -0.6448
     26 O6          1.1348    2.1897    0.0030 O.co2     1 <0>        -0.7818
     27 O7         -6.8929   -5.9463   -1.1796 O.3       1 <0>        -0.6084
     28 H5         -6.7228   -8.4837   -2.6856 H         1 <0>         0.0744
     29 H6         -7.4491   -8.4956   -1.0427 H         1 <0>         0.0854
     30 H7         -3.5693  -10.1367   -1.9623 H         1 <0>         0.4142
     31 H8         -2.8771   -8.5983   -0.7499 H         1 <0>         0.0766
     32 H9         -2.9144   -8.3197    1.0243 H         1 <0>         0.0694
     33 H10        -3.5429  -10.7015    1.3851 H         1 <0>         0.0606
     34 H11        -3.5056  -10.9802   -0.3891 H         1 <0>         0.0565
     35 H12        -3.2333   -6.6341    0.8954 H         1 <0>         0.0801
     36 H13        -3.2506   -6.6244   -0.9007 H         1 <0>         0.0765
     37 H14        -4.7112   -4.6084   -0.8758 H         1 <0>         0.0879
     38 H15        -4.6939   -4.6181    0.9204 H         1 <0>         0.0950
     39 H16        -3.3799   -2.2287   -0.8759 H         1 <0>         0.0947
     40 H17        -3.3628   -2.2383    0.9203 H         1 <0>         0.0949
     41 H18        -0.8806   -2.4279    0.8957 H         1 <0>         0.0634
     42 H19        -0.8976   -2.4182   -0.9005 H         1 <0>         0.0632
     43 H20        -1.9653   -0.1692   -0.8783 H         1 <0>         0.0589
     44 H21        -1.9482   -0.1788    0.9179 H         1 <0>         0.0588
     45 H22         0.5341   -0.3685    0.8932 H         1 <0>         0.0632
     46 H23         0.5170   -0.3589   -0.9030 H         1 <0>         0.0632
     47 H24        -6.6087   -4.9050   -0.9676 H         1 <0>         0.3981
@<TRIPOS>BOND
     1    1    8 1
     2    1    2 1
     3    1   28 1
     4    1   29 1
     5    2    3 1
     6    2    4 1
     7    2   27 1
     8    4    5 1
     9    4    6 1
    10    4   16 1
    11    6    7 1
    12    6    8 1
    13    6   11 1
    14    8    9 1
    15    8   10 1
    16   10   30 1
    17   11   12 1
    18   11   31 1
    19   11   32 1
    20   12   13 1
    21   12   33 1
    22   12   34 1
    23   13   14 2
    24   13   15 1
    25   16   17 1
    26   16   35 1
    27   16   36 1
    28   17   18 1
    29   17   37 1
    30   17   38 1
    31   18   19 2
    32   18   20 1
    33   20   21 1
    34   20   39 1
    35   20   40 1
    36   21   22 1
    37   21   41 1
    38   21   42 1
    39   22   23 1
    40   22   43 1
    41   22   44 1
    42   23   24 1
    43   23   45 1
    44   23   46 1
    45   24   25 2
    46   24   26 1
    47   27   47 1
@<TRIPOS>MOLECULE
ZINC13450772
   44    44     0     0     0
SMALL
USER_CHARGES

@<TRIPOS>ATOM
      1 C1         -0.0127    1.0858    0.0080 C.3       1 <0>        -0.0910
      2 C2         -0.7416    1.5850   -1.2129 C.ar      1 <0>         0.1573
      3 C3         -2.1064    1.7992   -1.1728 C.ar      1 <0>        -0.2704
      4 C4         -2.7418    2.2620   -2.3247 C.ar      1 <0>         0.4446
      5 O1         -4.0784    2.4858   -2.3293 O.3       1 <0>        -0.6927
      6 N1         -2.0193    2.4807   -3.4162 N.ar      1 <0>        -0.6198
      7 C5         -0.7117    2.2634   -3.4154 C.ar      1 <0>         0.3073
      8 N2         -0.0804    1.8286   -2.3343 N.ar      1 <0>        -0.5845
      9 S1          0.2107    2.5664   -4.8858 S.3       1 <0>        -0.0027
     10 C6         -1.0336    3.1415   -6.0738 C.3       1 <0>        -0.0980
     11 H1         -1.5699    3.9930   -5.6547 H         1 <0>         0.1136
     12 C7         -2.0214    2.0102   -6.3657 C.3       1 <0>        -0.1376
     13 C8         -0.3531    3.5566   -7.3527 C.2       1 <0>         0.5413
     14 O2          0.7236    3.0828   -7.6481 O.2       1 <0>        -0.5278
     15 N3         -0.9409    4.4542   -8.1683 N.am      1 <0>        -0.7293
     16 C9         -0.2793    4.8577   -9.4115 C.3       1 <0>         0.1254
     17 C10        -1.1516    5.8782  -10.1455 C.3       1 <0>        -0.1100
     18 C11        -0.4065    6.3927  -11.3788 C.3       1 <0>        -0.1431
     19 C12        -2.4589    5.2127  -10.5802 C.3       1 <0>        -0.1501
     20 C13        -2.8905    1.5379    0.0873 C.3       1 <0>        -0.0160
     21 C14        -2.9300    2.8100    0.9364 C.3       1 <0>        -0.1651
     22 C15        -3.7141    2.5488    2.1966 C.2       1 <0>         0.4942
     23 O3         -4.1966    1.4472    2.3970 O.co2     1 <0>        -0.7031
     24 O4         -3.8659    3.4390    3.0157 O.co2     1 <0>        -0.7221
     25 H2          0.0021   -0.0041    0.0020 H         1 <0>         0.0634
     26 H3          1.0099    1.4631    0.0003 H         1 <0>         0.0608
     27 H4         -0.5229    1.4373    0.9048 H         1 <0>         0.0746
     28 H5         -1.4851    1.1587   -6.7847 H         1 <0>         0.0584
     29 H6         -2.5136    1.7100   -5.4406 H         1 <0>         0.1026
     30 H7         -2.7691    2.3558   -7.0795 H         1 <0>         0.0536
     31 H8         -1.8020    4.8332   -7.9320 H         1 <0>         0.4027
     32 H9          0.6871    5.3055   -9.1801 H         1 <0>         0.0665
     33 H10        -0.1321    3.9831  -10.0452 H         1 <0>         0.0660
     34 H11        -1.3724    6.7128   -9.4800 H         1 <0>         0.0779
     35 H12        -0.1856    5.5581  -12.0443 H         1 <0>         0.0568
     36 H13        -1.0279    7.1197  -11.9017 H         1 <0>         0.0577
     37 H14         0.5249    6.8668  -11.0691 H         1 <0>         0.0572
     38 H15        -2.2380    4.3782  -11.2456 H         1 <0>         0.0564
     39 H16        -2.9897    4.8462   -9.7015 H         1 <0>         0.0588
     40 H17        -3.0803    5.9398  -11.1031 H         1 <0>         0.0558
     41 H18        -3.9072    1.2425   -0.1720 H         1 <0>         0.0639
     42 H19        -2.4129    0.7380    0.6532 H         1 <0>         0.0477
     43 H20        -1.9133    3.1055    1.1958 H         1 <0>         0.0443
     44 H21        -3.4076    3.6099    0.3706 H         1 <0>         0.0543
@<TRIPOS>BOND
     1    1   25 1
     2    1   26 1
     3    1   27 1
     4    1    2 1
     5    2    3 ar
     6    2    8 ar
     7    3    4 ar
     8    3   20 1
     9    4    6 ar
    10    4    5 1
    11    6    7 ar
    12    7    8 ar
    13    7    9 1
    14    9   10 1
    15   10   11 1
    16   10   12 1
    17   10   13 1
    18   12   28 1
    19   12   29 1
    20   12   30 1
    21   13   14 2
    22   13   15 am
    23   15   16 1
    24   15   31 1
    25   16   17 1
    26   16   32 1
    27   16   33 1
    28   17   18 1
    29   17   19 1
    30   17   34 1
    31   18   35 1
    32   18   36 1
    33   18   37 1
    34   19   38 1
    35   19   39 1
    36   19   40 1
    37   20   21 1
    38   20   41 1
    39   20   42 1
    40   21   22 1
    41   21   43 1
    42   21   44 1
    43   22   23 2
    44   22   24 1
@<TRIPOS>MOLECULE
ZINC58867449
   38    39     0     0     0
SMALL
USER_CHARGES

@<TRIPOS>ATOM
      1 C1          0.0240    1.3812    0.0407 C.3       1 <0>         0.0279
      2 O1          0.0362   -0.0477    0.0213 O.3       1 <0>        -0.3211
      3 C2         -1.1700   -0.6755    0.0315 C.ar      1 <0>         0.0810
      4 C3         -2.3396    0.0697    0.0539 C.ar      1 <0>        -0.1656
      5 C4         -3.5648   -0.5680    0.0643 C.ar      1 <0>        -0.1090
      6 C5         -3.6255   -1.9536    0.0519 C.ar      1 <0>         0.1036
      7 C6         -2.4560   -2.6988    0.0285 C.ar      1 <0>        -0.1731
      8 C7         -1.2308   -2.0610    0.0138 C.ar      1 <0>        -0.1103
      9 O2         -4.8317   -2.5815    0.0630 O.3       1 <0>        -0.2841
     10 C8         -4.8194   -4.0103    0.0491 C.3       1 <0>         0.0469
     11 C9         -6.2357   -4.5250    0.0643 C.2       1 <0>         0.4979
     12 O3         -7.1642   -3.7450    0.0850 O.2       1 <0>        -0.4843
     13 N1         -6.4706   -5.8521    0.0549 N.am      1 <0>        -0.6571
     14 C10        -7.7754   -6.3296    0.1644 C.ar      1 <0>         0.1053
     15 C11        -8.0260   -7.5061    0.8627 C.ar      1 <0>        -0.1778
     16 C12        -9.3138   -7.9879    0.9773 C.ar      1 <0>        -0.0819
     17 C13       -10.3736   -7.2958    0.3925 C.ar      1 <0>        -0.1283
     18 C14       -10.1234   -6.1021   -0.3160 C.ar      1 <0>        -0.0609
     19 C15        -8.8229   -5.6244   -0.4205 C.ar      1 <0>        -0.1181
     20 C16       -11.2395   -5.3607   -0.9396 C.2       1 <0>         0.5625
     21 O4        -11.5114   -5.5423   -2.1177 O.co2     1 <0>        -0.7007
     22 O5        -11.8908   -4.5657   -0.2774 O.co2     1 <0>        -0.6908
     23 C17       -11.7502   -7.8099    0.5139 C.2       1 <0>         0.5151
     24 O6        -11.9773   -8.7923    1.2062 O.co2     1 <0>        -0.7198
     25 O7        -12.6650   -7.2540   -0.0777 O.co2     1 <0>        -0.6402
     26 H1          1.0484    1.7534    0.0298 H         1 <0>         0.0963
     27 H2         -0.5066    1.7519   -0.8363 H         1 <0>         0.0541
     28 H3         -0.4791    1.7280    0.9433 H         1 <0>         0.0540
     29 H4         -2.2923    1.1487    0.0636 H         1 <0>         0.1335
     30 H5         -4.4755    0.0123    0.0824 H         1 <0>         0.1383
     31 H6         -2.5032   -3.7778    0.0192 H         1 <0>         0.1369
     32 H7         -0.3202   -2.6413   -0.0081 H         1 <0>         0.1322
     33 H8         -4.3152   -4.3606   -0.8515 H         1 <0>         0.0917
     34 H9         -4.2899   -4.3777    0.9282 H         1 <0>         0.0921
     35 H10        -5.7316   -6.4749   -0.0281 H         1 <0>         0.4004
     36 H11        -7.2082   -8.0455    1.3173 H         1 <0>         0.1063
     37 H12        -9.5011   -8.9025    1.5204 H         1 <0>         0.1227
     38 H13        -8.6247   -4.7091   -0.9584 H         1 <0>         0.1242
@<TRIPOS>BOND
     1    1    2 1
     2    1   26 1
     3    1   27 1
     4    1   28 1
     5    2    3 1
     6    3    8 ar
     7    3    4 ar
     8    4    5 ar
     9    4   29 1
    10    5    6 ar
    11    5   30 1
    12    6    7 ar
    13    6    9 1
    14    7    8 ar
    15    7   31 1
    16    8   32 1
    17    9   10 1
    18   10   11 1
    19   10   33 1
    20   10   34 1
    21   11   12 2
    22   11   13 am
    23   13   14 1
    24   13   35 1
    25   14   19 ar
    26   14   15 ar
    27   15   16 ar
    28   15   36 1
    29   16   17 ar
    30   16   37 1
    31   17   18 ar
    32   17   23 1
    33   18   19 ar
    34   18   20 1
    35   19   38 1
    36   20   21 2
    37   20   22 1
    38   23   24 2
    39   23   25 1
@<TRIPOS>MOLECULE
ZINC05517559
   25    26     0     0     0
SMALL
USER_CHARGES
6-(3-bromophenyl)-2-oxo-3,6-dihydro-1H-pyrimidine-4-carboxylic acid
@<TRIPOS>ATOM
      1 C1         -1.2186    1.7506    0.0173 C.ar      1 <0>        -0.1129
      2 C2         -1.2374    3.1330    0.0313 C.ar      1 <0>        -0.0787
      3 C3         -0.0502    3.8409    0.0233 C.ar      1 <0>        -0.0867
      4 C4          1.1566    3.1668    0.0081 C.ar      1 <0>        -0.0798
      5 C5          1.1759    1.7839    0.0004 C.ar      1 <0>        -0.0903
      6 C6         -0.0126    1.0758    0.0080 C.ar      1 <0>        -0.0933
      7 Br1         2.8264    0.8612   -0.0197 Br        1 <0>        -0.0578
      8 C7         -0.0715    5.3477    0.0316 C.3       1 <0>         0.2218
      9 H1          0.9236    5.6916    0.3139 H         1 <0>         0.0826
     10 C8         -0.3418    5.8168   -1.3827 C.2       1 <0>        -0.2267
     11 C9         -1.4129    6.5913   -1.5923 C.2       1 <0>         0.1091
     12 N1         -2.2525    6.9541   -0.5379 N.am      1 <0>        -0.6465
     13 C10        -2.0519    6.5630    0.7276 C.2       1 <0>         0.7052
     14 O1         -2.8325    6.9245    1.5869 O.2       1 <0>        -0.5951
     15 N2         -1.0121    5.7806    1.0773 N.am      1 <0>        -0.7241
     16 C11        -1.7097    7.0682   -2.9552 C.2       1 <0>         0.4917
     17 O2         -0.9840    6.7577   -3.8790 O.co2     1 <0>        -0.6091
     18 H2         -2.1465    1.1979    0.0187 H         1 <0>         0.1310
     19 H3         -2.1800    3.6600    0.0431 H         1 <0>         0.1248
     20 H4          2.0841    3.7199    0.0018 H         1 <0>         0.1348
     21 H5          0.0021   -0.0041    0.0020 H         1 <0>         0.1302
     22 H6          0.3093    5.5349   -2.1969 H         1 <0>         0.1618
     23 H7         -3.0186    7.5170   -0.7309 H         1 <0>         0.4298
     24 H8         -0.8856    5.5091    1.9999 H         1 <0>         0.4214
     25 O3         -2.7859    7.8486   -3.1766 O.co2     1 <0>        -0.7431
@<TRIPOS>BOND
     1    1    6 ar
     2    1    2 ar
     3    1   18 1
     4    2    3 ar
     5    2   19 1
     6    3    4 ar
     7    3    8 1
     8    4    5 ar
     9    4   20 1
    10    5    6 ar
    11    5    7 1
    12    6   21 1
    13    8    9 1
    14    8   15 1
    15    8   10 1
    16   10   11 2
    17   10   22 1
    18   11   12 1
    19   11   16 1
    20   12   13 am
    21   12   23 1
    22   13   14 2
    23   13   15 am
    24   15   24 1
    25   16   17 2
    26   16   25 1
@<TRIPOS>MOLECULE
ZINC35796495
   24    25     0     0     0
SMALL
USER_CHARGES

@<TRIPOS>ATOM
      1 C1         -0.4148   -1.1972   -0.8602 C.3       1 <0>        -0.1586
      2 C2          0.0021   -0.0041    0.0020 C.3       1 <0>         0.0991
      3 H1          0.7274    0.6013   -0.5417 H         1 <0>         0.1640
      4 C3         -1.2101    0.8318    0.3227 C.2       1 <0>         0.5242
      5 O1         -1.5383    1.0063    1.4772 O.2       1 <0>        -0.5228
      6 N1         -1.9296    1.3855   -0.6734 N.am      1 <0>        -0.8544
      7 N2          0.6048   -0.4878    1.2466 N.pl3     1 <0>        -0.4737
      8 C4         -0.0964   -1.3204    2.0754 C.2       1 <0>         0.5407
      9 O2         -1.3505   -1.7101    1.7643 O.3       1 <0>        -0.6120
     10 C5          0.5062   -1.7489    3.2287 C.2       1 <0>        -0.3329
     11 C6          1.8234   -1.3494    3.5705 C.2       1 <0>         0.2079
     12 C7          2.3102   -1.8657    4.7798 C.2       1 <0>        -0.1598
     13 C8          1.5405   -2.6822    5.5299 C.2       1 <0>        -0.1318
     14 S1          0.0336   -2.7960    4.5799 S.3       1 <0>         0.0985
     15 N3          2.4439   -0.5228    2.6915 N.2       1 <0>        -0.5377
     16 C9          1.8546   -0.1222    1.5823 C.2       1 <0>         0.5133
     17 S2          2.7155    0.9149    0.5267 S.2       1 <0>        -0.7232
     18 H2         -1.2231   -1.7371   -0.3670 H         1 <0>         0.0883
     19 H3         -0.7557   -0.8415   -1.8325 H         1 <0>         0.0712
     20 H4          0.4374   -1.8632   -0.9954 H         1 <0>         0.0665
     21 H5         -1.6672    1.2460   -1.5967 H         1 <0>         0.3991
     22 H6         -2.7099    1.9236   -0.4670 H         1 <0>         0.3992
     23 H7          3.3053   -1.6094    5.1122 H         1 <0>         0.1412
     24 H8          1.7782   -3.1517    6.4730 H         1 <0>         0.1935
@<TRIPOS>BOND
     1    1    2 1
     2    1   18 1
     3    1   19 1
     4    1   20 1
     5    2    3 1
     6    2    4 1
     7    2    7 1
     8    4    5 2
     9    4    6 am
    10    6   21 1
    11    6   22 1
    12    7   16 1
    13    7    8 1
    14    8    9 1
    15    8   10 2
    16   10   14 1
    17   10   11 1
    18   11   12 1
    19   11   15 2
    20   12   13 2
    21   12   23 1
    22   13   14 1
    23   13   24 1
    24   15   16 1
    25   16   17 2
@<TRIPOS>MOLECULE
ZINC41067865
   25    26     0     0     0
SMALL
USER_CHARGES

@<TRIPOS>ATOM
      1 C1         -0.0167    1.3785    0.0096 C.ar      1 <0>        -0.1774
      2 C2          1.1691    2.0897    0.0021 C.ar      1 <0>        -0.1195
      3 C3          2.3794    1.4199   -0.0131 C.ar      1 <0>         0.0488
      4 C4          2.4024    0.0302   -0.0208 C.ar      1 <0>         0.2291
      5 C5          1.2083   -0.6811   -0.0132 C.ar      1 <0>        -0.0468
      6 C6          0.0021   -0.0041    0.0020 C.ar      1 <0>        -0.1036
      7 F1          1.2256   -2.0320   -0.0211 F         1 <0>        -0.1370
      8 N1          3.6253   -0.6515   -0.0366 N.2       1 <0>        -1.0802
      9 S1          3.6503   -2.3073   -0.0457 S.o2      1 <0>         2.6482
     10 O1          3.1180   -2.7284    1.2027 O.2       1 <0>        -1.0139
     11 O2          3.0933   -2.7150   -1.2878 O.2       1 <0>        -1.0121
     12 C7          5.3411   -2.8028   -0.0652 C.2       1 <0>        -0.6480
     13 C8          6.1684   -3.0536    0.9791 C.2       1 <0>        -0.0793
     14 C9          7.4758   -3.4347    0.7231 C.2       1 <0>         0.1522
     15 C10         7.8860   -3.5447   -0.5678 C.2       1 <0>        -0.2725
     16 S2          6.4047   -3.1116   -1.4651 S.3       1 <0>         0.1435
     17 N2          8.3639   -3.7030    1.7820 N.pl3     1 <0>        -0.8790
     18 F2          3.5374    2.1156   -0.0208 F         1 <0>        -0.1385
     19 H1         -0.9599    1.9043    0.0260 H         1 <0>         0.1226
     20 H2          1.1504    3.1695    0.0078 H         1 <0>         0.1246
     21 H3         -0.9262   -0.5561    0.0083 H         1 <0>         0.1223
     22 H4          5.8141   -2.9574    1.9948 H         1 <0>         0.1425
     23 H5          8.8556   -3.8259   -0.9515 H         1 <0>         0.1825
     24 H6          8.0624   -3.6216    2.7003 H         1 <0>         0.3952
     25 H7          9.2774   -3.9692    1.5932 H         1 <0>         0.3963
@<TRIPOS>BOND
     1    1    6 ar
     2    1    2 ar
     3    1   19 1
     4    2    3 ar
     5    2   20 1
     6    3    4 ar
     7    3   18 1
     8    4    5 ar
     9    4    8 1
    10    5    6 ar
    11    5    7 1
    12    6   21 1
    13    8    9 1
    14    9   10 2
    15    9   11 2
    16    9   12 1
    17   12   16 1
    18   12   13 2
    19   13   14 1
    20   13   22 1
    21   14   15 2
    22   14   17 1
    23   15   16 1
    24   15   23 1
    25   17   24 1
    26   17   25 1
@<TRIPOS>MOLECULE
ZINC02863433
   21    21     0     0     0
SMALL
USER_CHARGES

@<TRIPOS>ATOM
      1 C1         -0.2219    0.8712   -2.8464 C.3       1 <0>        -0.0789
      2 C2         -0.1952   -0.5289   -2.2897 C.2       1 <0>         0.0468
      3 C3         -1.1351   -1.0767   -1.5013 C.2       1 <0>        -0.2691
      4 C4         -0.7065   -2.4433   -1.1995 C.2       1 <0>         0.2953
      5 N1          0.4424   -2.6288   -1.8134 N.2       1 <0>        -0.3538
      6 O1          0.7678   -1.4374   -2.5034 O.3       1 <0>        -0.1080
      7 N2         -1.3720   -3.3523   -0.4276 N.2       1 <0>        -0.5687
      8 C5         -0.8013   -4.4921   -0.1173 C.2       1 <0>         0.3396
      9 C6          0.6071   -4.6021   -0.1251 C.2       1 <0>        -0.3371
     10 C7          1.2111   -5.8463   -0.3453 C.2       1 <0>         0.4748
     11 N3          2.5725   -5.9526   -0.3529 N.pl3     1 <0>        -0.8233
     12 S1          0.2145   -7.2746   -0.6127 S.3       1 <0>        -0.7968
     13 C8          1.4171   -3.4413    0.0922 C.1       1 <0>         0.3080
     14 N4          2.0596   -2.5205    0.2646 N.1       1 <0>        -0.4971
     15 H1          0.6673    1.0374   -3.4545 H         1 <0>         0.0766
     16 H2         -1.1123    1.0006   -3.4618 H         1 <0>         0.0866
     17 H3         -0.2401    1.5883   -2.0257 H         1 <0>         0.0855
     18 H4         -2.0387   -0.5976   -1.1544 H         1 <0>         0.1497
     19 H5         -1.4082   -5.3464    0.1441 H         1 <0>         0.1755
     20 H6          3.1212   -5.1664   -0.2057 H         1 <0>         0.3891
     21 H7          2.9909   -6.8143   -0.5054 H         1 <0>         0.4054
@<TRIPOS>BOND
     1    1    2 1
     2    1   15 1
     3    1   16 1
     4    1   17 1
     5    2    6 1
     6    2    3 2
     7    3    4 1
     8    3   18 1
     9    4    5 2
    10    4    7 1
    11    5    6 1
    12    7    8 2
    13    8    9 1
    14    8   19 1
    15    9   10 2
    16    9   13 1
    17   10   11 1
    18   10   12 1
    19   11   20 1
    20   11   21 1
    21   13   14 3
@<TRIPOS>MOLECULE
ZINC62922764
   26    26     0     0     0
SMALL
USER_CHARGES

@<TRIPOS>ATOM
      1 C1         -0.0187    1.5258    0.0104 C.3       1 <0>        -0.1610
      2 C2          0.0021   -0.0041    0.0020 C.3       1 <0>        -0.0861
      3 C3          0.7182   -0.4975   -1.2568 C.3       1 <0>        -0.1417
      4 C4          0.8152   -2.0406   -1.2495 C.3       1 <0>        -0.1142
      5 C5          2.2322   -2.2992   -1.8206 C.3       1 <0>         0.1058
      6 N1          3.0387   -1.2021   -1.2377 N.am      1 <0>        -0.6359
      7 C6          2.1774   -0.0053   -1.2698 C.3       1 <0>         0.1503
      8 C7          4.3010   -1.2815   -0.7723 C.2       1 <0>         0.7224
      9 O1          4.8444   -0.2936   -0.3171 O.2       1 <0>        -0.6037
     10 N2          4.9610   -2.4559   -0.8113 N.am      1 <0>        -0.8706
     11 C8         -0.0056   -0.0221   -2.4901 C.2       1 <0>         0.5092
     12 O2         -0.1565    1.1717   -2.6863 O.co2     1 <0>        -0.6834
     13 O3         -0.4404   -0.8314   -3.2917 O.co2     1 <0>        -0.6916
     14 H1          1.0039    1.9031    0.0027 H         1 <0>         0.0453
     15 H2         -0.5459    1.8868   -0.8726 H         1 <0>         0.0956
     16 H3         -0.5289    1.8773    0.9072 H         1 <0>         0.0318
     17 H4          0.5293   -0.3651    0.8851 H         1 <0>         0.0434
     18 H5         -1.0205   -0.3814    0.0098 H         1 <0>         0.0541
     19 H6          0.7318   -2.4278   -0.2341 H         1 <0>         0.0552
     20 H7          0.0533   -2.4783   -1.8945 H         1 <0>         0.0972
     21 H8          2.6078   -3.2686   -1.4932 H         1 <0>         0.0644
     22 H9          2.2258   -2.2355   -2.9088 H         1 <0>         0.0748
     23 H10         2.3686    0.5655   -2.1786 H         1 <0>         0.0639
     24 H11         2.3684    0.6132   -0.3928 H         1 <0>         0.0709
     25 H12         4.5275   -3.2440   -1.1744 H         1 <0>         0.3942
     26 H13         5.8696   -2.5131   -0.4763 H         1 <0>         0.4097
@<TRIPOS>BOND
     1    1    2 1
     2    1   14 1
     3    1   15 1
     4    1   16 1
     5    2    3 1
     6    2   17 1
     7    2   18 1
     8    3    7 1
     9    3    4 1
    10    3   11 1
    11    4    5 1
    12    4   19 1
    13    4   20 1
    14    5    6 1
    15    5   21 1
    16    5   22 1
    17    6    7 1
    18    6    8 am
    19    7   23 1
    20    7   24 1
    21    8    9 2
    22    8   10 am
    23   10   25 1
    24   10   26 1
    25   11   12 2
    26   11   13 1
@<TRIPOS>MOLECULE
ZINC00134032
   16    16     0     0     0
SMALL
USER_CHARGES
2,5-dibromobenzene-1,4-dicarboxylic acid
@<TRIPOS>ATOM
      1 C1          2.5277    5.0976    0.0061 C.ar      1 <0>        -0.0625
      2 C2          1.3469    5.8418    0.0214 C.ar      1 <0>        -0.0973
      3 C3          0.1108    5.1906    0.0293 C.ar      1 <0>        -0.0661
      4 C4          0.0573    3.8125    0.0220 C.ar      1 <0>        -0.0625
      5 C5          1.2380    3.0683    0.0067 C.ar      1 <0>        -0.0974
      6 C6          2.4742    3.7195    0.0042 C.ar      1 <0>        -0.0662
      7 Br1         4.0739    2.7112   -0.0087 Br        1 <0>        -0.0418
      8 C7          1.1807    1.5906   -0.0007 C.2       1 <0>         0.4891
      9 O1          2.2080    0.9431   -0.0140 O.co2     1 <0>        -0.6014
     10 Br2        -1.4889    6.1988    0.0506 Br        1 <0>        -0.0418
     11 C8          1.4043    7.3195    0.0297 C.2       1 <0>         0.4891
     12 O2          0.3769    7.9670    0.0434 O.co2     1 <0>        -0.6014
     13 H1          3.4832    5.6010    0.0003 H         1 <0>         0.1407
     14 H2         -0.8982    3.3091    0.0284 H         1 <0>         0.1407
     15 O3         -0.0110    0.9628    0.0073 O.co2     1 <0>        -0.7606
     16 O4          2.5960    7.9473    0.0221 O.co2     1 <0>        -0.7606
@<TRIPOS>BOND
     1    1    6 ar
     2    1    2 ar
     3    1   13 1
     4    2    3 ar
     5    2   11 1
     6    3    4 ar
     7    3   10 1
     8    4    5 ar
     9    4   14 1
    10    5    6 ar
    11    5    8 1
    12    6    7 1
    13    8    9 2
    14    8   15 1
    15   11   12 2
    16   11   16 1
@<TRIPOS>MOLECULE
ZINC20504954
   24    24     0     0     0
SMALL
USER_CHARGES
3-[(2,4,6-trichlorophenyl)sulfamoyl]propanoic acid
@<TRIPOS>ATOM
      1 C1         -0.5676    2.0628   -0.6927 C.ar      1 <0>        -0.0841
      2 C2         -0.8181    1.4596    0.5271 C.ar      1 <0>        -0.0840
      3 C3          0.0434    1.6601    1.5913 C.ar      1 <0>        -0.0840
      4 C4          1.1516    2.4726    1.4415 C.ar      1 <0>        -0.0639
      5 C5          1.4029    3.0840    0.2194 C.ar      1 <0>         0.2654
      6 C6          0.5389    2.8764   -0.8487 C.ar      1 <0>        -0.0779
      7 Cl1         0.8490    3.6377   -2.3778 Cl        1 <0>        -0.0370
      8 N1          2.5239    3.9066    0.0646 N.2       1 <0>        -1.0963
      9 S1          2.3326    5.5415   -0.1160 S.o2      1 <0>         2.5457
     10 O1          3.6492    6.0421   -0.3035 O.2       1 <0>        -1.0036
     11 O2          1.3524    5.6815   -1.1352 O.2       1 <0>        -1.0190
     12 C7          1.6678    6.1114    1.4727 C.3       1 <0>        -0.6125
     13 C8          1.4831    7.6297    1.4332 C.3       1 <0>        -0.1456
     14 C9          0.9308    8.1031    2.7530 C.2       1 <0>         0.4694
     15 O3          0.7078    7.3077    3.6347 O.co2     1 <0>        -0.6343
     16 O4          0.6866    9.4083    2.9490 O.co2     1 <0>        -0.7876
     17 Cl2         2.2285    2.7285    2.7789 Cl        1 <0>        -0.0617
     18 Cl3        -2.2124    0.4437    0.7210 Cl        1 <0>        -0.0964
     19 H1         -1.2398    1.9013   -1.5225 H         1 <0>         0.1269
     20 H2         -0.1527    1.1849    2.5411 H         1 <0>         0.1287
     21 H3          0.6970    5.6287    1.6583 H         1 <0>         0.1039
     22 H4          2.3683    5.8481    2.2790 H         1 <0>         0.1107
     23 H5          2.4539    8.1124    1.2476 H         1 <0>         0.0685
     24 H6          0.7826    7.8930    0.6270 H         1 <0>         0.0688
@<TRIPOS>BOND
     1    1    6 ar
     2    1    2 ar
     3    1   19 1
     4    2    3 ar
     5    2   18 1
     6    3    4 ar
     7    3   20 1
     8    4    5 ar
     9    4   17 1
    10    5    6 ar
    11    5    8 1
    12    6    7 1
    13    8    9 1
    14    9   10 2
    15    9   11 2
    16    9   12 1
    17   12   13 1
    18   12   21 1
    19   12   22 1
    20   13   14 1
    21   13   23 1
    22   13   24 1
    23   14   15 2
    24   14   16 1
@<TRIPOS>MOLECULE
ZINC12917530
   28    29     0     0     0
SMALL
USER_CHARGES

@<TRIPOS>ATOM
      1 C1         -0.0168    1.3863    0.0097 C.ar      1 <0>        -0.2421
      2 C2          1.1665    2.0996    0.0022 C.ar      1 <0>        -0.1250
      3 C3          2.3792    1.4355   -0.0129 C.ar      1 <0>         0.0318
      4 C4          2.4086    0.0359   -0.0207 C.ar      1 <0>        -0.1371
      5 C5          1.2098   -0.6819   -0.0131 C.ar      1 <0>        -0.1078
      6 C6          0.0021   -0.0041    0.0020 C.ar      1 <0>         0.2443
      7 N1         -1.2000   -0.7189    0.0096 N.2       1 <0>        -1.0819
      8 S1         -2.6446    0.0906    0.0277 S.o2      1 <0>         2.5862
      9 O1         -2.7177    0.7629    1.2774 O.2       1 <0>        -1.0291
     10 O2         -2.7414    0.7763   -1.2131 O.2       1 <0>        -1.0283
     11 C7         -3.9218   -1.1232    0.0333 C.ar      1 <0>        -0.5905
     12 C8         -4.4298   -1.5967   -1.1622 C.ar      1 <0>        -0.0050
     13 C9         -5.4317   -2.5487   -1.1604 C.ar      1 <0>        -0.1514
     14 C10        -5.9272   -3.0296    0.0392 C.ar      1 <0>         0.0960
     15 C11        -5.4175   -2.5551    1.2381 C.ar      1 <0>         0.0400
     16 C12        -4.4108   -1.6052    1.2328 C.ar      1 <0>        -0.0276
     17 F1         -5.8999   -3.0227    2.4103 F         1 <0>        -0.1319
     18 F2         -6.9069   -3.9599    0.0419 F         1 <0>        -0.1318
     19 C13         3.6982   -0.6772   -0.0372 C.2       1 <0>         0.5259
     20 O3          3.7207   -1.9001   -0.0440 O.co2     1 <0>        -0.6954
     21 O4          4.7459   -0.0461   -0.0443 O.co2     1 <0>        -0.6899
     22 F3          3.5341    2.1364   -0.0206 F         1 <0>        -0.1456
     23 H1         -0.9606    1.9110    0.0260 H         1 <0>         0.0972
     24 H2          1.1442    3.1794    0.0078 H         1 <0>         0.1069
     25 H3          1.2249   -1.7618   -0.0193 H         1 <0>         0.1269
     26 H4         -4.0435   -1.2219   -2.0986 H         1 <0>         0.1560
     27 H5         -5.8281   -2.9173   -2.0949 H         1 <0>         0.1489
     28 H6         -4.0103   -1.2376    2.1660 H         1 <0>         0.1606
@<TRIPOS>BOND
     1    1    6 ar
     2    1    2 ar
     3    1   23 1
     4    2    3 ar
     5    2   24 1
     6    3    4 ar
     7    3   22 1
     8    4    5 ar
     9    4   19 1
    10    5    6 ar
    11    5   25 1
    12    6    7 1
    13    7    8 1
    14    8    9 2
    15    8   10 2
    16    8   11 1
    17   11   16 ar
    18   11   12 ar
    19   12   13 ar
    20   12   26 1
    21   13   14 ar
    22   13   27 1
    23   14   15 ar
    24   14   18 1
    25   15   16 ar
    26   15   17 1
    27   16   28 1
    28   19   20 2
    29   19   21 1
@<TRIPOS>MOLECULE
ZINC39606483
   24    25     0     0     0
SMALL
USER_CHARGES

@<TRIPOS>ATOM
      1 C1         -0.1056    1.2731    0.1733 C.ar      1 <0>        -0.2099
      2 C2         -1.3132    1.9487    0.1297 C.ar      1 <0>        -0.1063
      3 C3         -2.4858    1.1923    0.1177 C.ar      1 <0>         0.2286
      4 N1         -2.4167   -0.1294    0.1478 N.ar      1 <0>        -0.2354
      5 N2         -1.2961   -0.7539    0.1883 N.ar      1 <0>        -0.3351
      6 C4         -0.1362   -0.1198    0.2025 C.ar      1 <0>         0.3364
      7 O1          1.0237   -0.8248    0.2405 O.3       1 <0>        -0.7298
      8 N3         -3.7254    1.8261    0.0747 N.pl3     1 <0>        -0.4500
      9 C5         -5.0341    1.1516    0.0637 C.3       1 <0>         0.1088
     10 H1         -5.1345    0.5212   -0.8198 H         1 <0>         0.1058
     11 C6         -6.0353    2.3235    0.0126 C.3       1 <0>        -0.1791
     12 H2         -6.6358    2.2746   -0.8958 H         1 <0>         0.1030
     13 C7         -5.1531    3.5515    0.0005 C.2       1 <0>         0.0818
     14 N4         -3.9325    3.2036    0.0410 N.2       1 <0>        -0.2377
     15 C8         -6.9210    2.3164    1.2318 C.2       1 <0>         0.5025
     16 O2         -6.5469    2.8538    2.2602 O.co2     1 <0>        -0.6656
     17 O3         -8.0117    1.7732    1.1898 O.co2     1 <0>        -0.6805
     18 C9         -5.2272    0.3270    1.3379 C.3       1 <0>         0.4329
     19 F1         -5.0265    1.1431    2.4564 F         1 <0>        -0.1618
     20 F2         -6.5265   -0.1910    1.3657 F         1 <0>        -0.1741
     21 F3         -4.3053   -0.7250    1.3567 F         1 <0>        -0.1662
     22 H3          0.8319    1.8092    0.1799 H         1 <0>         0.1176
     23 H4         -1.3467    3.0279    0.1060 H         1 <0>         0.1232
     24 H5         -5.5078    4.5710   -0.0332 H         1 <0>         0.1907
@<TRIPOS>BOND
     1    1    6 ar
     2    1   22 1
     3    1    2 ar
     4    2   23 1
     5    2    3 ar
     6    3    8 1
     7    3    4 ar
     8    4    5 ar
     9    5    6 ar
    10    6    7 1
    11    8   14 1
    12    8    9 1
    13    9   10 1
    14    9   11 1
    15    9   18 1
    16   11   12 1
    17   11   13 1
    18   11   15 1
    19   13   14 2
    20   13   24 1
    21   15   16 2
    22   15   17 1
    23   18   19 1
    24   18   20 1
    25   18   21 1
@<TRIPOS>MOLECULE
ZINC58239601
   32    33     0     0     0
SMALL
USER_CHARGES

@<TRIPOS>ATOM
      1 C1         -0.0167    1.3792    0.0096 C.ar      1 <0>        -0.1007
      2 C2          1.1670    2.0882    0.0021 C.ar      1 <0>        -0.1013
      3 C3          2.3845    1.4071   -0.0131 C.ar      1 <0>         0.0058
      4 C4          2.3966    0.0120   -0.0207 C.ar      1 <0>        -0.0760
      5 C5          1.2061   -0.6853   -0.0130 C.ar      1 <0>        -0.1001
      6 C6          0.0021   -0.0041    0.0020 C.ar      1 <0>        -0.0600
      7 C7         -1.2945   -0.7721    0.0107 C.3       1 <0>        -0.0449
      8 S1         -1.8317   -1.0710   -1.6959 S.3       1 <0>        -0.2851
      9 C8         -3.3836   -1.9922   -1.5126 C.3       1 <0>        -0.0441
     10 C9         -3.9524   -2.3136   -2.8960 C.3       1 <0>        -0.1678
     11 C10        -5.2417   -3.0789   -2.7437 C.2       1 <0>         0.4989
     12 O1         -5.6662   -3.3428   -1.6316 O.co2     1 <0>        -0.6979
     13 O2         -5.8602   -3.4341   -3.7325 O.co2     1 <0>        -0.7005
     14 C11         3.6572    2.1610   -0.0217 C.2       1 <0>         0.0823
     15 N1          4.8937    1.7020   -0.0414 N.2       1 <0>        -0.4213
     16 C12         5.8948    2.5732   -0.0455 C.2       1 <0>        -0.0115
     17 C13         5.5996    3.9233   -0.0290 C.2       1 <0>        -0.2230
     18 S2          3.9166    3.9258   -0.0160 S.3       1 <0>         0.0685
     19 C14         7.2891    2.1118   -0.0667 C.2       1 <0>         0.5483
     20 O3          7.5369    0.9133   -0.0812 O.co2     1 <0>        -0.6646
     21 O4          8.2031    2.9258   -0.0698 O.co2     1 <0>        -0.6880
     22 H1         -0.9598    1.9053    0.0260 H         1 <0>         0.1286
     23 H2          1.1510    3.1681    0.0077 H         1 <0>         0.1257
     24 H3          3.3359   -0.5210   -0.0328 H         1 <0>         0.1386
     25 H4          1.2141   -1.7653   -0.0192 H         1 <0>         0.1298
     26 H5         -1.1485   -1.7257    0.5180 H         1 <0>         0.0880
     27 H6         -2.0555   -0.1943    0.5352 H         1 <0>         0.0873
     28 H7         -3.1937   -2.9202   -0.9732 H         1 <0>         0.0780
     29 H8         -4.1007   -1.3888   -0.9561 H         1 <0>         0.0776
     30 H9         -4.1423   -1.3856   -3.4353 H         1 <0>         0.0665
     31 H10        -3.2353   -2.9170   -3.4525 H         1 <0>         0.0670
     32 H11         6.2774    4.7642   -0.0294 H         1 <0>         0.1963
@<TRIPOS>BOND
     1    1    6 ar
     2    1    2 ar
     3    1   22 1
     4    2    3 ar
     5    2   23 1
     6    3    4 ar
     7    3   14 1
     8    4    5 ar
     9    4   24 1
    10    5    6 ar
    11    5   25 1
    12    6    7 1
    13    7    8 1
    14    7   26 1
    15    7   27 1
    16    8    9 1
    17    9   10 1
    18    9   28 1
    19    9   29 1
    20   10   11 1
    21   10   30 1
    22   10   31 1
    23   11   12 2
    24   11   13 1
    25   14   18 1
    26   14   15 2
    27   15   16 1
    28   16   17 2
    29   16   19 1
    30   17   18 1
    31   17   32 1
    32   19   20 2
    33   19   21 1
@<TRIPOS>MOLECULE
ZINC00343432
   22    23     0     0     0
SMALL
USER_CHARGES
4-bromonaphthalene-1,8-dicarboxylic acid
@<TRIPOS>ATOM
      1 C1          0.1126    5.1988    0.0441 C.ar      1 <0>        -0.0916
      2 C2          1.3029    5.8622    0.0992 C.ar      1 <0>        -0.1624
      3 C3          2.5096    5.1436    0.1511 C.ar      1 <0>        -0.0179
      4 C4          3.7486    5.8091    0.2078 C.ar      1 <0>        -0.1242
      5 C5          4.9090    5.0927    0.2574 C.ar      1 <0>        -0.0601
      6 C6          4.8963    3.7053    0.2530 C.ar      1 <0>        -0.1518
      7 C7          3.6947    3.0089    0.1983 C.ar      1 <0>        -0.0085
      8 C8          2.4786    3.7297    0.1513 C.ar      1 <0>        -0.0396
      9 C9          1.2335    3.0631    0.0887 C.ar      1 <0>        -0.0279
     10 C10         0.0637    3.8119    0.0385 C.ar      1 <0>        -0.1455
     11 C11         1.1762    1.5908    0.0830 C.2       1 <0>         0.4992
     12 O1          1.5222    0.9655    1.0659 O.co2     1 <0>        -0.5930
     13 C12         3.6875    1.5360    0.1945 C.2       1 <0>         0.4982
     14 O2          3.3149    0.9328   -0.7925 O.co2     1 <0>        -0.5899
     15 Br1         3.8053    7.6993    0.2161 Br        1 <0>        -0.0873
     16 H1         -0.8078    5.7625    0.0045 H         1 <0>         0.1125
     17 H2          1.3182    6.9421    0.1026 H         1 <0>         0.1208
     18 H3          5.8536    5.6146    0.3003 H         1 <0>         0.1202
     19 H4          5.8285    3.1615    0.2929 H         1 <0>         0.1258
     20 H5         -0.8916    3.3102   -0.0057 H         1 <0>         0.1181
     21 O3          0.7402    0.9376   -1.0122 O.co2     1 <0>        -0.7491
     22 O4          4.0941    0.8573    1.2856 O.co2     1 <0>        -0.7464
@<TRIPOS>BOND
     1    1   10 ar
     2    1    2 ar
     3    1   16 1
     4    2    3 ar
     5    2   17 1
     6    3    8 ar
     7    3    4 ar
     8    4    5 ar
     9    4   15 1
    10    5    6 ar
    11    5   18 1
    12    6    7 ar
    13    6   19 1
    14    7    8 ar
    15    7   13 1
    16    8    9 ar
    17    9   10 ar
    18    9   11 1
    19   10   20 1
    20   11   12 2
    21   11   21 1
    22   13   14 2
    23   13   22 1
@<TRIPOS>MOLECULE
ZINC15243639
   25    26     0     0     0
SMALL
USER_CHARGES

@<TRIPOS>ATOM
      1 C1          1.2121   -0.6821   -0.0895 C.ar      1 <0>        -0.0854
      2 C2          2.3999    0.0237   -0.0822 C.ar      1 <0>        -0.2357
      3 C3          2.3819    1.4106   -0.0291 C.ar      1 <0>         0.2882
      4 C4          1.1681    2.0865    0.0168 C.ar      1 <0>        -0.0747
      5 C5         -0.0172    1.3762    0.0093 C.ar      1 <0>        -0.0965
      6 C6          0.0041   -0.0075   -0.0438 C.ar      1 <0>        -0.0236
      7 F1         -1.1558   -0.7001   -0.0509 F         1 <0>        -0.1621
      8 Cl1         1.1414    3.8210    0.0839 Cl        1 <0>        -0.0763
      9 N1          3.5834    2.1271   -0.0211 N.2       1 <0>        -1.0648
     10 S1          5.0267    1.3223    0.0858 S.o2      1 <0>         2.6503
     11 O1          5.0176    0.6357    1.3299 O.2       1 <0>        -1.0222
     12 O2          5.2104    0.6513   -1.1533 O.2       1 <0>        -1.0266
     13 C7          6.2957    2.5401    0.1920 C.2       1 <0>        -0.7297
     14 C8          6.8207    3.1080    1.2950 C.2       1 <0>         0.0231
     15 C9          7.8594    4.0845    1.0646 C.2       1 <0>        -0.2114
     16 C10         8.2011    4.3301   -0.2493 C.2       1 <0>        -0.1924
     17 S2          7.2004    3.3126   -1.1315 S.3       1 <0>         0.1953
     18 C11         8.5192    4.7820    2.1742 C.2       1 <0>         0.5392
     19 O3          8.1924    4.5414    3.3290 O.co2     1 <0>        -0.6886
     20 O4          9.3963    5.6044    1.9450 O.co2     1 <0>        -0.6979
     21 H1          1.2260   -1.7610   -0.1354 H         1 <0>         0.1185
     22 H2          3.3419   -0.5034   -0.1175 H         1 <0>         0.1148
     23 H3         -0.9607    1.9005    0.0452 H         1 <0>         0.1247
     24 H4          6.4857    2.8496    2.2887 H         1 <0>         0.1494
     25 H5          8.9451    5.0174   -0.6241 H         1 <0>         0.1844
@<TRIPOS>BOND
     1    1    6 ar
     2    1    2 ar
     3    1   21 1
     4    2    3 ar
     5    2   22 1
     6    3    4 ar
     7    3    9 1
     8    4    5 ar
     9    4    8 1
    10    5    6 ar
    11    5   23 1
    12    6    7 1
    13    9   10 1
    14   10   11 2
    15   10   12 2
    16   10   13 1
    17   13   17 1
    18   13   14 2
    19   14   15 1
    20   14   24 1
    21   15   16 2
    22   15   18 1
    23   16   17 1
    24   16   25 1
    25   18   19 2
    26   18   20 1
@<TRIPOS>MOLECULE
ZINC39886285
   25    26     0     0     0
SMALL
USER_CHARGES

@<TRIPOS>ATOM
      1 C1         -0.0169    1.3970    0.0097 C.ar      1 <0>        -0.0873
      2 C2          1.1546    2.0947    0.0023 C.ar      1 <0>        -0.1411
      3 C3          2.3771    1.4109   -0.0131 C.ar      1 <0>         0.1097
      4 C4          2.3963    0.0101   -0.0212 C.ar      1 <0>        -0.1102
      5 C5          1.2250   -0.6879   -0.0142 C.ar      1 <0>        -0.0773
      6 C6          0.0021   -0.0041    0.0020 C.ar      1 <0>        -0.1546
      7 C7         -1.2607   -0.7563    0.0105 C.2       1 <0>         0.5243
      8 O1         -2.3287   -0.1590    0.0243 O.co2     1 <0>        -0.7028
      9 O2         -1.2440   -1.9800    0.0038 O.co2     1 <0>        -0.6958
     10 N1          3.5472    2.1079   -0.0205 N.2       1 <0>        -0.5278
     11 C8          4.5317    1.7483    0.7734 C.2       1 <0>         0.3441
     12 C9          5.7809    2.5692    0.7091 C.3       1 <0>        -0.0928
     13 C10         6.4454    2.6528    2.0889 C.3       1 <0>        -0.0908
     14 S1          6.7382    0.9491    2.6624 S.3       1 <0>        -0.2348
     15 C11         5.1544    0.2009    2.4284 C.2       1 <0>         0.4076
     16 S2          4.6942   -1.2126    3.3743 S.3       1 <0>        -0.7110
     17 N2          4.3169    0.7090    1.5455 N.2       1 <0>        -0.5875
     18 H1         -0.9594    1.9242    0.0261 H         1 <0>         0.1176
     19 H2          1.1400    3.1746    0.0079 H         1 <0>         0.1054
     20 H3          3.3389   -0.5169   -0.0334 H         1 <0>         0.1132
     21 H4          1.2398   -1.7678   -0.0213 H         1 <0>         0.1170
     22 H5          6.4748    2.1124    0.0034 H         1 <0>         0.0879
     23 H6          5.5330    3.5744    0.3683 H         1 <0>         0.0959
     24 H7          7.3935    3.1851    2.0112 H         1 <0>         0.1069
     25 H8          5.7862    3.1698    2.7862 H         1 <0>         0.0841
@<TRIPOS>BOND
     1    1    6 ar
     2    1    2 ar
     3    1   18 1
     4    2    3 ar
     5    2   19 1
     6    3    4 ar
     7    3   10 1
     8    4    5 ar
     9    4   20 1
    10    5    6 ar
    11    5   21 1
    12    6    7 1
    13    7    8 2
    14    7    9 1
    15   10   11 2
    16   11   17 1
    17   11   12 1
    18   12   13 1
    19   12   22 1
    20   12   23 1
    21   13   14 1
    22   13   24 1
    23   13   25 1
    24   14   15 1
    25   15   16 1
    26   15   17 2
@<TRIPOS>MOLECULE
ZINC05513978
   28    30     0     0     0
SMALL
USER_CHARGES

@<TRIPOS>ATOM
      1 C1         -0.0173    1.4248    0.0099 C.3       1 <0>         0.0299
      2 O1          0.0021   -0.0041    0.0020 O.3       1 <0>        -0.3237
      3 C2          0.6057   -0.6070   -1.0555 C.ar      1 <0>         0.1077
      4 C3          1.1725    0.1637   -2.0615 C.ar      1 <0>        -0.2115
      5 C4          1.7858   -0.4456   -3.1361 C.ar      1 <0>        -0.0576
      6 C5          1.8366   -1.8362   -3.2113 C.ar      1 <0>        -0.0101
      7 C6          1.2672   -2.6072   -2.1997 C.ar      1 <0>        -0.0577
      8 C7          0.6595   -1.9925   -1.1251 C.ar      1 <0>        -0.1527
      9 C8          2.4955   -2.4947   -4.3666 C.2       1 <0>         0.1439
     10 C9          3.2201   -3.6904   -4.3199 C.2       1 <0>        -0.3333
     11 C10         3.6675   -3.9588   -5.6042 C.2       1 <0>         0.3946
     12 N1          3.2196   -2.9422   -6.4084 N.pl3     1 <0>        -0.3570
     13 N2          2.4905   -2.0523   -5.6111 N.2       1 <0>        -0.3280
     14 C11         3.5182   -2.9493   -7.7453 C.2       1 <0>         0.4722
     15 O2          3.0830   -1.9524   -8.5501 O.3       1 <0>        -0.7182
     16 C12         4.2591   -3.9729   -8.2539 C.2       1 <0>        -0.4592
     17 C13         4.6993   -4.9953   -7.3987 C.2       1 <0>         0.4770
     18 O3          5.4370   -6.0187   -7.8934 O.3       1 <0>        -0.7315
     19 N3          4.3968   -4.9633   -6.1151 N.2       1 <0>        -0.6355
     20 Br1         3.5324   -4.7484   -2.7840 Br        1 <0>        -0.0729
     21 H1          1.0053    1.8021    0.0021 H         1 <0>         0.0520
     22 H2         -0.5445    1.7859   -0.8732 H         1 <0>         0.0521
     23 H3         -0.5275    1.7763    0.9067 H         1 <0>         0.0910
     24 H4          1.1328    1.2413   -2.0028 H         1 <0>         0.1220
     25 H5          2.2260    0.1545   -3.9188 H         1 <0>         0.1290
     26 H6          1.3051   -3.6851   -2.2554 H         1 <0>         0.1418
     27 H7          0.2213   -2.5895   -0.3390 H         1 <0>         0.1263
     28 H8          4.5052   -3.9978   -9.3052 H         1 <0>         0.1094
@<TRIPOS>BOND
     1    1    2 1
     2    1   21 1
     3    1   22 1
     4    1   23 1
     5    2    3 1
     6    3    8 ar
     7    3    4 ar
     8    4    5 ar
     9    4   24 1
    10    5    6 ar
    11    5   25 1
    12    6    7 ar
    13    6    9 1
    14    7    8 ar
    15    7   26 1
    16    8   27 1
    17    9   13 2
    18    9   10 1
    19   10   11 2
    20   10   20 1
    21   11   19 1
    22   11   12 1
    23   12   13 1
    24   12   14 1
    25   14   15 1
    26   14   16 2
    27   16   17 1
    28   16   28 1
    29   17   18 1
    30   17   19 2
@<TRIPOS>MOLECULE
ZINC65350661
   30    31     0     0     0
SMALL
USER_CHARGES

@<TRIPOS>ATOM
      1 C1         -0.5276    1.2838   -0.1858 C.3       1 <0>         0.0318
      2 O1         -0.5065   -0.1407   -0.2968 O.3       1 <0>        -0.3234
      3 C2          0.3489   -0.6759   -1.2066 C.ar      1 <0>         0.1030
      4 C3          1.1553    0.1583   -1.9722 C.ar      1 <0>        -0.2215
      5 C4          2.0275   -0.3728   -2.8996 C.ar      1 <0>        -0.0829
      6 C5          2.1056   -1.7521   -3.0749 C.ar      1 <0>        -0.0509
      7 C6          1.2909   -2.6009   -2.3011 C.ar      1 <0>        -0.0660
      8 C7          0.4175   -2.0506   -1.3630 C.ar      1 <0>        -0.1289
      9 C8          1.3645   -4.0624   -2.4776 C.2       1 <0>         0.5269
     10 O2          1.2083   -4.5531   -3.5871 O.co2     1 <0>        -0.6627
     11 O3          1.5817   -4.7845   -1.5146 O.co2     1 <0>        -0.6921
     12 C9          3.0405   -2.3234   -4.0704 C.ar      1 <0>        -0.0304
     13 C10         3.9898   -3.2678   -3.6744 C.ar      1 <0>        -0.1010
     14 C11         4.8594   -3.7995   -4.5988 C.ar      1 <0>        -0.0829
     15 C12         4.7917   -3.3941   -5.9357 C.ar      1 <0>        -0.1420
     16 C13         3.8402   -2.4486   -6.3312 C.ar      1 <0>        -0.0915
     17 C14         2.9685   -1.9218   -5.4059 C.ar      1 <0>        -0.1247
     18 C15         5.7230   -3.9627   -6.9270 C.2       1 <0>         0.5257
     19 O4          6.5553   -4.7893   -6.5804 O.co2     1 <0>        -0.6953
     20 O5          5.6634   -3.6078   -8.0960 O.co2     1 <0>        -0.6993
     21 H1          0.4625    1.6409    0.0976 H         1 <0>         0.0493
     22 H2         -0.8100    1.7188   -1.1445 H         1 <0>         0.0491
     23 H3         -1.2514    1.5783    0.5741 H         1 <0>         0.0891
     24 H4          1.0984    1.2287   -1.8404 H         1 <0>         0.1173
     25 H5          2.6505    0.2820   -3.4908 H         1 <0>         0.1201
     26 H6         -0.2075   -2.6951   -0.7627 H         1 <0>         0.1251
     27 H7          4.0419   -3.5806   -2.6420 H         1 <0>         0.1110
     28 H8          5.5940   -4.5294   -4.2921 H         1 <0>         0.1204
     29 H9          3.7872   -2.1345   -7.3632 H         1 <0>         0.1193
     30 H10         2.2312   -1.1944   -5.7118 H         1 <0>         0.1072
@<TRIPOS>BOND
     1    1    2 1
     2    1   21 1
     3    1   22 1
     4    1   23 1
     5    2    3 1
     6    3    8 ar
     7    3    4 ar
     8    4    5 ar
     9    4   24 1
    10    5    6 ar
    11    5   25 1
    12    6    7 ar
    13    6   12 1
    14    7    8 ar
    15    7    9 1
    16    8   26 1
    17    9   10 2
    18    9   11 1
    19   12   17 ar
    20   12   13 ar
    21   13   14 ar
    22   13   27 1
    23   14   15 ar
    24   14   28 1
    25   15   16 ar
    26   15   18 1
    27   16   17 ar
    28   16   29 1
    29   17   30 1
    30   18   19 2
    31   18   20 1
@<TRIPOS>MOLECULE
ZINC08927234
   42    43     0     0     0
SMALL
USER_CHARGES
3-(acetoxymethyl)-7-(4-carboxybutanoylamino)-8-oxo-5-thia-1-azabicyclo[4.2.0]oct-2-ene-2-carboxylic acid
@<TRIPOS>ATOM
      1 C1         -0.5140   -3.3530    2.3696 C.3       1 <0>        -0.1427
      2 C2         -0.2145   -2.5174    1.1518 C.2       1 <0>         0.4546
      3 O1         -1.0464   -2.3939    0.2843 O.2       1 <0>        -0.5166
      4 O2          0.9765   -1.9102    1.0308 O.3       1 <0>        -0.3531
      5 C3          1.1956   -1.1216   -0.1685 C.3       1 <0>         0.1248
      6 C4          2.5367   -0.4394   -0.0830 C.2       1 <0>        -0.2203
      7 C5          2.5284    0.8769   -0.2361 C.2       1 <0>         0.1824
      8 N1          3.7264    1.6015   -0.2191 N.am      1 <0>        -0.5553
      9 C6          5.0480    1.1484    0.2987 C.3       1 <0>         0.1202
     10 H1          5.1761    1.2458    1.3767 H         1 <0>         0.1337
     11 C7          5.7120    2.2429   -0.5176 C.3       1 <0>         0.1423
     12 H2          6.1571    1.9011   -1.4520 H         1 <0>         0.1673
     13 C8          4.2864    2.7269   -0.6450 C.2       1 <0>         0.5175
     14 O3          3.8150    3.7826   -1.0118 O.2       1 <0>        -0.4615
     15 N2          6.5866    3.1287    0.2548 N.am      1 <0>        -0.7137
     16 C9          7.5922    3.7844   -0.3578 C.2       1 <0>         0.5200
     17 O4          7.7731    3.6411   -1.5484 O.2       1 <0>        -0.5182
     18 C10         8.4919    4.6956    0.4368 C.3       1 <0>        -0.1366
     19 C11         9.5420    5.3108   -0.4905 C.3       1 <0>        -0.0849
     20 C12        10.4554    6.2359    0.3162 C.3       1 <0>        -0.1575
     21 C13        11.4897    6.8418   -0.5971 C.2       1 <0>         0.4585
     22 O5         11.4956    6.5624   -1.7726 O.co2     1 <0>        -0.6368
     23 S1          5.2667   -0.5562   -0.3160 S.3       1 <0>        -0.2336
     24 C14         3.6988   -1.3280    0.1909 C.3       1 <0>        -0.0093
     25 C15         1.2481    1.5841   -0.4196 C.2       1 <0>         0.4992
     26 O6          0.8394    1.8199   -1.5393 O.co2     1 <0>        -0.6017
     27 H3          0.3487   -3.3467    3.0358 H         1 <0>         0.0886
     28 H4         -1.3780   -2.9399    2.8902 H         1 <0>         0.1012
     29 H5         -0.7294   -4.3768    2.0638 H         1 <0>         0.0989
     30 H6          0.4109   -0.3704   -0.2577 H         1 <0>         0.0947
     31 H7          1.1749   -1.7742   -1.0413 H         1 <0>         0.0756
     32 H8          6.4419    3.2433    1.2071 H         1 <0>         0.4074
     33 H9          7.8972    5.4891    0.8893 H         1 <0>         0.0937
     34 H10         8.9892    4.1229    1.2195 H         1 <0>         0.0932
     35 H11        10.1367    4.5172   -0.9430 H         1 <0>         0.0690
     36 H12         9.0446    5.8835   -1.2733 H         1 <0>         0.0696
     37 H13         9.8607    7.0294    0.7687 H         1 <0>         0.0634
     38 H14        10.9527    5.6632    1.0990 H         1 <0>         0.0629
     39 H15         3.5630   -2.2546   -0.3669 H         1 <0>         0.1143
     40 H16         3.7453   -1.5600    1.2549 H         1 <0>         0.0987
     41 O7         12.4044    7.6919   -0.1047 O.co2     1 <0>        -0.7836
     42 O8          0.5309    1.9690    0.6545 O.co2     1 <0>        -0.7262
@<TRIPOS>BOND
     1    1    2 1
     2    1   27 1
     3    1   28 1
     4    1   29 1
     5    2    3 2
     6    2    4 1
     7    4    5 1
     8    5    6 1
     9    5   30 1
    10    5   31 1
    11    6   24 1
    12    6    7 2
    13    7    8 1
    14    7   25 1
    15    8   13 am
    16    8    9 1
    17    9   10 1
    18    9   11 1
    19    9   23 1
    20   11   12 1
    21   11   13 1
    22   11   15 1
    23   13   14 2
    24   15   16 am
    25   15   32 1
    26   16   17 2
    27   16   18 1
    28   18   19 1
    29   18   33 1
    30   18   34 1
    31   19   20 1
    32   19   35 1
    33   19   36 1
    34   20   21 1
    35   20   37 1
    36   20   38 1
    37   21   22 2
    38   21   41 1
    39   23   24 1
    40   24   39 1
    41   24   40 1
    42   25   26 2
    43   25   42 1
@<TRIPOS>MOLECULE
ZINC13367127
   44    44     0     0     0
SMALL
USER_CHARGES
(2S)-2-[[5-[(E)-3-hydroxy-3-oxo-prop-1-enyl]-2-methoxy-phenyl]sulfonylamino]-4-methyl-pentanoic acid
@<TRIPOS>ATOM
      1 C1         -4.2723    4.9575    2.4888 C.3       1 <0>        -0.1429
      2 C2         -3.5730    3.8646    1.6780 C.3       1 <0>        -0.1002
      3 C3         -3.0124    4.4666    0.3879 C.3       1 <0>        -0.1503
      4 C4         -2.4293    3.2706    2.5026 C.3       1 <0>        -0.0979
      5 C5         -1.8243    2.0817    1.7534 C.3       1 <0>         0.1026
      6 H1         -1.4957    2.4040    0.7654 H         1 <0>         0.1086
      7 C6         -0.6453    1.5485    2.5258 C.2       1 <0>         0.4574
      8 O1         -0.6472    0.4059    2.9187 O.co2     1 <0>        -0.6211
      9 N1         -2.8329    1.0284    1.6131 N.pl3     1 <0>        -1.0871
     10 S1         -2.8665    0.0907    0.2486 S.o2      1 <0>         2.7088
     11 O2         -2.8104    0.9809   -0.8575 O.2       1 <0>        -0.9651
     12 O3         -3.9243   -0.8421    0.4229 O.2       1 <0>        -0.9824
     13 C7         -1.3720   -0.8422    0.2206 C.ar      1 <0>        -0.6890
     14 C8         -1.4158   -2.2136    0.3327 C.ar      1 <0>         0.0223
     15 C9         -0.2278   -2.9535    0.3098 C.ar      1 <0>        -0.1096
     16 C10         0.9996   -2.2938    0.1730 C.ar      1 <0>        -0.0227
     17 C11         1.0319   -0.9228    0.0564 C.ar      1 <0>        -0.2195
     18 C12        -0.1508   -0.1921    0.0850 C.ar      1 <0>         0.2455
     19 O4         -0.1131    1.1602   -0.0256 O.3       1 <0>        -0.3031
     20 C13         1.1747    1.7643   -0.1621 C.3       1 <0>         0.0381
     21 C14        -0.2687   -4.4177    0.4286 C.2       1 <0>        -0.0847
     22 C15         0.8793   -5.1295    0.4062 C.2       1 <0>        -0.1726
     23 C16         0.8399   -6.5421    0.5208 C.2       1 <0>         0.4769
     24 O5         -0.2277   -7.1132    0.6392 O.co2     1 <0>        -0.6427
     25 H2         -4.7167    4.5189    3.3823 H         1 <0>         0.0496
     26 H3         -3.5452    5.7158    2.7795 H         1 <0>         0.0516
     27 H4         -5.0532    5.4164    1.8825 H         1 <0>         0.0471
     28 H5         -4.2889    3.0804    1.4319 H         1 <0>         0.0680
     29 H6         -2.5142    3.6880   -0.1898 H         1 <0>         0.0693
     30 H7         -3.8271    4.8898   -0.1996 H         1 <0>         0.0449
     31 H8         -2.2964    5.2508    0.6340 H         1 <0>         0.0504
     32 H9         -2.8123    2.9358    3.4667 H         1 <0>         0.0571
     33 H10        -1.6626    4.0292    2.6599 H         1 <0>         0.0799
     34 H11        -3.4810    0.8804    2.3195 H         1 <0>         0.4090
     35 H12        -2.3651   -2.7177    0.4384 H         1 <0>         0.1438
     36 H13         1.9190   -2.8601    0.1549 H         1 <0>         0.1321
     37 H14         1.9778   -0.4133   -0.0536 H         1 <0>         0.1305
     38 H15         1.0623    2.8456   -0.2407 H         1 <0>         0.0978
     39 H16         1.7828    1.5247    0.7102 H         1 <0>         0.0719
     40 H17         1.6614    1.3833   -1.0599 H         1 <0>         0.0446
     41 H18        -1.2164   -4.9247    0.5337 H         1 <0>         0.1280
     42 H19         1.8271   -4.6225    0.3011 H         1 <0>         0.1033
     43 O6          0.4071    2.3428    2.7772 O.co2     1 <0>        -0.7725
     44 O7          1.9865   -7.2531    0.4985 O.co2     1 <0>        -0.7758
@<TRIPOS>BOND
     1    1    2 1
     2    1   25 1
     3    1   26 1
     4    1   27 1
     5    2    3 1
     6    2    4 1
     7    2   28 1
     8    3   29 1
     9    3   30 1
    10    3   31 1
    11    4    5 1
    12    4   32 1
    13    4   33 1
    14    5    6 1
    15    5    7 1
    16    5    9 1
    17    7    8 2
    18    7   43 1
    19    9   10 1
    20    9   34 1
    21   10   11 2
    22   10   12 2
    23   10   13 1
    24   13   18 ar
    25   13   14 ar
    26   14   15 ar
    27   14   35 1
    28   15   16 ar
    29   15   21 1
    30   16   17 ar
    31   16   36 1
    32   17   18 ar
    33   17   37 1
    34   18   19 1
    35   19   20 1
    36   20   38 1
    37   20   39 1
    38   20   40 1
    39   21   22 2
    40   21   41 1
    41   22   23 1
    42   22   42 1
    43   23   24 2
    44   23   44 1
@<TRIPOS>MOLECULE
ZINC26845864
   38    38     0     0     0
SMALL
USER_CHARGES
(2R)-2-[(4-acetamidophenyl)sulfonylamino]-3-(carboxymethylsulfanyl)propanoic acid
@<TRIPOS>ATOM
      1 C1         -2.1818   -0.0307   -0.5651 C.3       1 <0>        -0.1685
      2 C2         -2.1981    1.4762   -0.5643 C.2       1 <0>         0.5080
      3 O1         -3.1169    2.0730   -1.0847 O.2       1 <0>        -0.5322
      4 N1         -1.1946    2.1607    0.0195 N.am      1 <0>        -0.6833
      5 C3         -1.1591    3.5571   -0.0634 C.ar      1 <0>         0.1866
      6 C4          0.0588    4.2180   -0.1556 C.ar      1 <0>        -0.1625
      7 C5          0.0901    5.5960   -0.2431 C.ar      1 <0>         0.0049
      8 C6         -1.0891    6.3182   -0.2279 C.ar      1 <0>        -0.6673
      9 C7         -2.3031    5.6634   -0.1300 C.ar      1 <0>         0.0141
     10 C8         -2.3415    4.2853   -0.0480 C.ar      1 <0>        -0.1429
     11 S1         -1.0445    8.0765   -0.3329 S.o2      1 <0>         2.6959
     12 O2          0.1823    8.4146   -0.9653 O.2       1 <0>        -0.9602
     13 O3         -2.3046    8.4847   -0.8474 O.2       1 <0>        -0.9770
     14 N2         -0.9547    8.6573    1.2153 N.pl3     1 <0>        -1.0831
     15 C9          0.2279    8.3800    2.0342 C.3       1 <0>         0.1317
     16 H1          1.0669    8.1857    1.3498 H         1 <0>         0.0942
     17 C10         0.5193    9.5832    2.9333 C.3       1 <0>        -0.0838
     18 S2          0.8253   11.0461    1.9052 S.3       1 <0>        -0.2094
     19 C11         1.1499   12.3664    3.1061 C.3       1 <0>        -0.1326
     20 C12         1.4233   13.6550    2.3743 C.2       1 <0>         0.4813
     21 O4          1.4015   13.6802    1.1665 O.co2     1 <0>        -0.6136
     22 O5          1.6912   14.7748    3.0642 O.co2     1 <0>        -0.7724
     23 C13        -0.0263    7.1647    2.8883 C.2       1 <0>         0.4573
     24 O6         -1.0865    6.5892    2.8199 O.co2     1 <0>        -0.6196
     25 O7          0.9252    6.7214    3.7250 O.co2     1 <0>        -0.7638
     26 H2         -1.2772   -0.3879   -0.0512 H         1 <0>         0.0781
     27 H3         -2.1830   -0.3968   -1.6024 H         1 <0>         0.0955
     28 H4         -3.0734   -0.4073   -0.0423 H         1 <0>         0.0958
     29 H5         -0.4034    1.6217    0.5612 H         1 <0>         0.4349
     30 H6          0.9802    3.6547   -0.1629 H         1 <0>         0.1273
     31 H7          1.0367    6.1103   -0.3196 H         1 <0>         0.1374
     32 H8         -3.2223    6.2303   -0.1181 H         1 <0>         0.1354
     33 H9         -3.2901    3.7745    0.0277 H         1 <0>         0.1379
     34 H10        -1.8485    9.1055    1.6739 H         1 <0>         0.4366
     35 H11        -0.3447    9.7694    3.5881 H         1 <0>         0.0721
     36 H12         1.4072    9.3749    3.5483 H         1 <0>         0.0912
     37 H13         0.2725   12.4936    3.7573 H         1 <0>         0.0775
     38 H14         2.0245   12.0992    3.7174 H         1 <0>         0.0782
@<TRIPOS>BOND
     1    1    2 1
     2    1   26 1
     3    1   27 1
     4    1   28 1
     5    2    3 2
     6    2    4 am
     7    4    5 1
     8    4   29 1
     9    5   10 ar
    10    5    6 ar
    11    6    7 ar
    12    6   30 1
    13    7    8 ar
    14    7   31 1
    15    8    9 ar
    16    8   11 1
    17    9   10 ar
    18    9   32 1
    19   10   33 1
    20   11   12 2
    21   11   13 2
    22   11   14 1
    23   14   15 1
    24   14   34 1
    25   15   16 1
    26   15   17 1
    27   15   23 1
    28   17   18 1
    29   17   35 1
    30   17   36 1
    31   18   19 1
    32   19   20 1
    33   19   37 1
    34   19   38 1
    35   20   21 2
    36   20   22 1
    37   23   24 2
    38   23   25 1
@<TRIPOS>MOLECULE
ZINC13092675
   43    44     0     0     0
SMALL
USER_CHARGES

@<TRIPOS>ATOM
      1 C1          0.7444    1.6756   -4.2690 C.3       1 <0>         0.0280
      2 O1          0.7841    0.2547   -4.4161 O.3       1 <0>        -0.3087
      3 C2          0.9947   -0.4765   -3.2901 C.ar      1 <0>         0.1836
      4 C3          1.0504   -1.8599   -3.3624 C.ar      1 <0>        -0.1889
      5 C4          1.2661   -2.6066   -2.2123 C.ar      1 <0>         0.2351
      6 C5          1.4259   -1.9675   -0.9904 C.ar      1 <0>        -0.2155
      7 C6          1.3700   -0.5840   -0.9195 C.ar      1 <0>         0.1809
      8 C7          1.1597    0.1617   -2.0699 C.ar      1 <0>        -0.3156
      9 O2          1.5260    0.0418    0.2766 O.3       1 <0>        -0.3132
     10 C8          1.4568    1.4692    0.2759 C.3       1 <0>         0.0283
     11 N1          1.3219   -4.0028   -2.2844 N.am      1 <0>        -0.6710
     12 C9          1.8297   -4.6012   -3.3801 C.2       1 <0>         0.5383
     13 O3          2.3254   -3.9319   -4.2618 O.2       1 <0>        -0.4931
     14 C10         1.7815   -6.1018   -3.5097 C.3       1 <0>        -0.1452
     15 S1          2.5378   -6.5975   -5.0823 S.3       1 <0>         0.0290
     16 C11         2.4056   -8.3545   -5.0838 C.ar      1 <0>         0.2492
     17 N2          2.8737   -9.0469   -6.1152 N.ar      1 <0>        -0.5764
     18 C12         2.7713  -10.3716   -6.1108 C.ar      1 <0>         0.4212
     19 O4          3.2407  -11.1044   -7.1497 O.3       1 <0>        -0.6592
     20 C13         2.1712  -10.9934   -5.0151 C.ar      1 <0>        -0.0389
     21 N3          1.7243  -10.2523   -4.0187 N.ar      1 <0>        -0.2058
     22 N4          1.8438   -8.9712   -4.0511 N.ar      1 <0>        -0.4102
     23 C14         2.0345  -12.4936   -4.9704 C.3       1 <0>        -0.0104
     24 C15         3.2732  -13.0990   -4.3070 C.3       1 <0>        -0.1653
     25 C16         3.1365  -14.5991   -4.2622 C.2       1 <0>         0.4977
     26 O5          2.1407  -15.1344   -4.7187 O.co2     1 <0>        -0.7015
     27 O6          4.0217  -15.2774   -3.7696 O.co2     1 <0>        -0.7190
     28 H1         -0.0617    1.9480   -3.5878 H         1 <0>         0.0533
     29 H2          1.6947    2.0257   -3.8660 H         1 <0>         0.0540
     30 H3          0.5701    2.1367   -5.2412 H         1 <0>         0.1002
     31 H4          0.9256   -2.3565   -4.3133 H         1 <0>         0.1487
     32 H5          1.5934   -2.5478   -0.0951 H         1 <0>         0.1372
     33 H6          1.1207    1.2396   -2.0149 H         1 <0>         0.1326
     34 H7          2.2387    1.8705   -0.3688 H         1 <0>         0.0546
     35 H8          0.4820    1.7855   -0.0952 H         1 <0>         0.0542
     36 H9          1.5969    1.8402    1.2912 H         1 <0>         0.0994
     37 H10         0.9952   -4.5401   -1.5458 H         1 <0>         0.4186
     38 H11         2.3296   -6.5556   -2.6840 H         1 <0>         0.1241
     39 H12         0.7442   -6.4356   -3.4843 H         1 <0>         0.1249
     40 H13         1.1475  -12.7606   -4.3959 H         1 <0>         0.0615
     41 H14         1.9402  -12.8802   -5.9851 H         1 <0>         0.0769
     42 H15         4.1602  -12.8319   -4.8814 H         1 <0>         0.0562
     43 H16         3.3675  -12.7123   -3.2922 H         1 <0>         0.0498
@<TRIPOS>BOND
     1    1    2 1
     2    1   28 1
     3    1   29 1
     4    1   30 1
     5    2    3 1
     6    3    8 ar
     7    3    4 ar
     8    4    5 ar
     9    4   31 1
    10    5    6 ar
    11    5   11 1
    12    6    7 ar
    13    6   32 1
    14    7    8 ar
    15    7    9 1
    16    8   33 1
    17    9   10 1
    18   10   34 1
    19   10   35 1
    20   10   36 1
    21   11   12 am
    22   11   37 1
    23   12   13 2
    24   12   14 1
    25   14   15 1
    26   14   38 1
    27   14   39 1
    28   15   16 1
    29   16   17 ar
    30   16   22 ar
    31   17   18 ar
    32   18   19 1
    33   18   20 ar
    34   20   21 ar
    35   20   23 1
    36   21   22 ar
    37   23   24 1
    38   23   40 1
    39   23   41 1
    40   24   25 1
    41   24   42 1
    42   24   43 1
    43   25   26 2
    44   25   27 1
@<TRIPOS>MOLECULE
ZINC49062046
   35    34     0     0     0
SMALL
USER_CHARGES

@<TRIPOS>ATOM
      1 C1         -0.0173    1.4248    0.0099 C.3       1 <0>         0.0331
      2 O1          0.0021   -0.0041    0.0020 O.3       1 <0>        -0.3564
      3 C2          0.6181   -0.6108    1.0287 C.2       1 <0>         0.4608
      4 O2          1.1242    0.0494    1.9050 O.2       1 <0>        -0.5069
      5 C3          0.6786   -2.1154    1.0883 C.3       1 <0>        -0.1050
      6 C4          1.4302   -2.5460    2.3496 C.3       1 <0>        -0.0987
      7 C5          1.4916   -4.0736    2.4101 C.3       1 <0>        -0.6227
      8 S1          2.3826   -4.5841    3.9055 S.o2      1 <0>         2.6192
      9 O3          3.7524   -4.2191    3.8076 O.2       1 <0>        -0.9684
     10 O4          1.6260   -4.2549    5.0624 O.2       1 <0>        -0.9827
     11 N1          2.3818   -6.2394    3.8571 N.pl3     1 <0>        -1.0774
     12 C6          3.0991   -6.9413    2.7898 C.3       1 <0>         0.0737
     13 H1          3.8989   -6.3054    2.4103 H         1 <0>         0.0777
     14 C7          3.6965   -8.2366    3.3431 C.3       1 <0>        -0.0725
     15 C8          4.7587   -7.9011    4.3919 C.3       1 <0>        -0.1798
     16 C9          5.3471   -9.1770    4.9369 C.2       1 <0>         0.4908
     17 O5          4.9534  -10.2547    4.5247 O.co2     1 <0>        -0.6999
     18 O6          6.2169   -9.1315    5.7901 O.co2     1 <0>        -0.7203
     19 C10         2.1427   -7.2667    1.6715 C.2       1 <0>         0.4849
     20 O7          0.9706   -6.9424    1.7581 O.co2     1 <0>        -0.6965
     21 O8          2.5411   -7.8543    0.6803 O.co2     1 <0>        -0.6931
     22 H2          1.0053    1.8021    0.0021 H         1 <0>         0.0586
     23 H3         -0.5445    1.7859   -0.8732 H         1 <0>         0.0979
     24 H4         -0.5275    1.7763    0.9067 H         1 <0>         0.0581
     25 H5         -0.3336   -2.5190    1.1129 H         1 <0>         0.1140
     26 H6          1.1992   -2.4933    0.2084 H         1 <0>         0.1144
     27 H7          2.4424   -2.1424    2.3250 H         1 <0>         0.0825
     28 H8          0.9096   -2.1681    3.2295 H         1 <0>         0.0822
     29 H9          0.4794   -4.4772    2.4347 H         1 <0>         0.1451
     30 H10         2.0121   -4.4514    1.5302 H         1 <0>         0.1349
     31 H11         1.9065   -6.7442    4.5354 H         1 <0>         0.4120
     32 H12         2.9082   -8.8332    3.8023 H         1 <0>         0.0568
     33 H13         4.1536   -8.8019    2.5309 H         1 <0>         0.0756
     34 H14         5.5470   -7.3046    3.9327 H         1 <0>         0.0544
     35 H15         4.3016   -7.3359    5.2041 H         1 <0>         0.0534
@<TRIPOS>BOND
     1    1    2 1
     2    1   22 1
     3    1   23 1
     4    1   24 1
     5    2    3 1
     6    3    4 2
     7    3    5 1
     8    5    6 1
     9    5   25 1
    10    5   26 1
    11    6    7 1
    12    6   27 1
    13    6   28 1
    14    7    8 1
    15    7   29 1
    16    7   30 1
    17    8    9 2
    18    8   10 2
    19    8   11 1
    20   11   12 1
    21   11   31 1
    22   12   13 1
    23   12   14 1
    24   12   19 1
    25   14   15 1
    26   14   32 1
    27   14   33 1
    28   15   16 1
    29   15   34 1
    30   15   35 1
    31   16   17 2
    32   16   18 1
    33   19   20 2
    34   19   21 1
@<TRIPOS>MOLECULE
ZINC04977270
   37    37     0     0     0
SMALL
USER_CHARGES
6-[5-(carboxymethyl)-2-thienyl]-6-ureidoimino-hexanoic acid
@<TRIPOS>ATOM
      1 C1          2.3999    4.1362   -0.1405 C.2       1 <0>        -0.1946
      2 C2          1.1176    3.6443   -0.0599 C.2       1 <0>        -0.0812
      3 C3          0.9215    2.2867   -0.2428 C.2       1 <0>        -0.1678
      4 S1          2.5852    1.7143   -0.5465 S.3       1 <0>         0.0977
      5 C4          3.4236    3.2838   -0.4064 C.2       1 <0>        -0.0523
      6 C5          4.8932    3.5863   -0.5471 C.3       1 <0>        -0.0943
      7 C6          5.5616    3.4680    0.7984 C.2       1 <0>         0.4667
      8 O1          4.9113    3.1688    1.7717 O.co2     1 <0>        -0.6205
      9 C7         -0.3280    1.5192   -0.2036 C.2       1 <0>         0.2223
     10 N1         -1.4551    2.1236    0.0303 N.2       1 <0>        -0.2741
     11 N2         -2.6332    1.3787    0.1720 N.am      1 <0>        -0.5840
     12 C8         -3.8165    2.0089    0.3104 C.2       1 <0>         0.7351
     13 O2         -4.8391    1.3624    0.4334 O.2       1 <0>        -0.5954
     14 N3         -3.8664    3.3558    0.3125 N.am      1 <0>        -0.8530
     15 C9         -0.3060    0.0311   -0.4407 C.3       1 <0>        -0.1221
     16 C10        -0.2426   -0.6985    0.9027 C.3       1 <0>        -0.1172
     17 C11        -0.3207   -2.2082    0.6673 C.3       1 <0>        -0.0956
     18 C12        -0.2573   -2.9378    2.0106 C.3       1 <0>        -0.1589
     19 C13        -0.3343   -4.4249    1.7788 C.2       1 <0>         0.4604
     20 O3         -0.4300   -4.8568    0.6544 O.co2     1 <0>        -0.6436
     21 H1          2.5900    5.1899    0.0010 H         1 <0>         0.1299
     22 H2          0.2849    4.3011    0.1443 H         1 <0>         0.1327
     23 H3          5.3453    2.8775   -1.2409 H         1 <0>         0.0859
     24 H4          5.0208    4.5995   -0.9283 H         1 <0>         0.0933
     25 H5         -2.5973    0.4094    0.1705 H         1 <0>         0.4055
     26 H6         -3.0508    3.8715    0.2144 H         1 <0>         0.4085
     27 H7         -4.7180    3.8094    0.4122 H         1 <0>         0.4094
     28 H8         -1.2099   -0.2654   -0.9729 H         1 <0>         0.0805
     29 H9          0.5686   -0.2289   -1.0370 H         1 <0>         0.0927
     30 H10         0.6949   -0.4569    1.4034 H         1 <0>         0.0738
     31 H11        -1.0793   -0.3843    1.5266 H         1 <0>         0.0573
     32 H12        -1.2583   -2.4498    0.1665 H         1 <0>         0.0593
     33 H13         0.5159   -2.5224    0.0433 H         1 <0>         0.0651
     34 H14         0.6802   -2.6962    2.5114 H         1 <0>         0.0659
     35 H15        -1.0940   -2.6236    2.6346 H         1 <0>         0.0615
     36 O4          6.8793    3.6951    0.9155 O.co2     1 <0>        -0.7677
     37 O5         -0.2965   -5.2695    2.8213 O.co2     1 <0>        -0.7812
@<TRIPOS>BOND
     1    1    5 2
     2    1    2 1
     3    1   21 1
     4    2    3 2
     5    2   22 1
     6    3    4 1
     7    3    9 1
     8    4    5 1
     9    5    6 1
    10    6    7 1
    11    6   23 1
    12    6   24 1
    13    7    8 2
    14    7   36 1
    15    9   10 2
    16    9   15 1
    17   10   11 1
    18   11   12 am
    19   11   25 1
    20   12   13 2
    21   12   14 am
    22   14   26 1
    23   14   27 1
    24   15   16 1
    25   15   28 1
    26   15   29 1
    27   16   17 1
    28   16   30 1
    29   16   31 1
    30   17   18 1
    31   17   32 1
    32   17   33 1
    33   18   19 1
    34   18   34 1
    35   18   35 1
    36   19   20 2
    37   19   37 1
@<TRIPOS>MOLECULE
ZINC37584000
   33    33     0     0     0
SMALL
USER_CHARGES

@<TRIPOS>ATOM
      1 C1         -0.0184    1.5068    0.0103 C.3       1 <0>        -0.0925
      2 C2          1.4716    1.9202   -0.0017 C.3       1 <0>        -0.1222
      3 C3          2.1286    0.6776   -0.6465 C.3       1 <0>        -0.0549
      4 H1          2.2343    0.8192   -1.7221 H         1 <0>         0.0915
      5 C4          1.1729   -0.4562   -0.3562 C.2       1 <0>        -0.1188
      6 C5          0.0021   -0.0041    0.0020 C.2       1 <0>        -0.2042
      7 C6          3.4925    0.4048   -0.0092 C.3       1 <0>        -0.1308
      8 C7          4.1669   -0.7318   -0.7333 C.2       1 <0>         0.5088
      9 O1          3.6114   -1.2706   -1.6671 O.2       1 <0>        -0.5601
     10 N1          5.3875   -1.1496   -0.3432 N.am      1 <0>        -0.6860
     11 C8          6.0431   -2.2545   -1.0471 C.3       1 <0>         0.0741
     12 H2          5.2930   -2.9782   -1.3661 H         1 <0>         0.0751
     13 C9          7.0421   -2.9354   -0.1093 C.3       1 <0>        -0.0810
     14 C10         6.2890   -3.5860    1.0527 C.3       1 <0>        -0.1762
     15 C11         7.2729   -4.2566    1.9764 C.2       1 <0>         0.4905
     16 O2          8.4660   -4.2178    1.7282 O.co2     1 <0>        -0.6976
     17 O3          6.8760   -4.8379    2.9718 O.co2     1 <0>        -0.7205
     18 C12         6.7707   -1.7201   -2.2538 C.2       1 <0>         0.4966
     19 O4          6.8995   -0.5171   -2.4046 O.co2     1 <0>        -0.7002
     20 O5          7.2305   -2.4907   -3.0791 O.co2     1 <0>        -0.7030
     21 H3         -0.5074    1.8750    0.9123 H         1 <0>         0.0616
     22 H4         -0.5244    1.8846   -0.8781 H         1 <0>         0.0668
     23 H5          1.6265    2.8075   -0.6154 H         1 <0>         0.0698
     24 H6          1.8422    2.0774    1.0112 H         1 <0>         0.0710
     25 H7          1.4255   -1.5033   -0.4350 H         1 <0>         0.1264
     26 H8         -0.8412   -0.6279    0.2591 H         1 <0>         0.1173
     27 H9          4.1119    1.2989   -0.0797 H         1 <0>         0.0898
     28 H10         3.3570    0.1383    1.0390 H         1 <0>         0.0859
     29 H11         5.8318   -0.7187    0.4037 H         1 <0>         0.3900
     30 H12         7.5932   -3.6991   -0.6581 H         1 <0>         0.0748
     31 H13         7.7393   -2.1932    0.2796 H         1 <0>         0.0558
     32 H14         5.7379   -2.8222    1.6015 H         1 <0>         0.0508
     33 H15         5.5918   -4.3281    0.6638 H         1 <0>         0.0515
@<TRIPOS>BOND
     1    1    6 1
     2    1    2 1
     3    1   21 1
     4    1   22 1
     5    2    3 1
     6    2   23 1
     7    2   24 1
     8    3    4 1
     9    3    5 1
    10    3    7 1
    11    5    6 2
    12    5   25 1
    13    6   26 1
    14    7    8 1
    15    7   27 1
    16    7   28 1
    17    8    9 2
    18    8   10 am
    19   10   11 1
    20   10   29 1
    21   11   12 1
    22   11   13 1
    23   11   18 1
    24   13   14 1
    25   13   30 1
    26   13   31 1
    27   14   15 1
    28   14   32 1
    29   14   33 1
    30   15   16 2
    31   15   17 1
    32   18   19 2
    33   18   20 1
@<TRIPOS>MOLECULE
ZINC13235890
   38    38     0     0     0
SMALL
USER_CHARGES

@<TRIPOS>ATOM
      1 C1         -0.0187    1.5258    0.0104 C.3       1 <0>        -0.1605
      2 C2          0.0021   -0.0041    0.0020 C.3       1 <0>         0.1477
      3 H1          0.5123   -0.3556   -0.8948 H         1 <0>         0.1006
      4 C3         -1.4333   -0.5336    0.0129 C.3       1 <0>         0.0523
      5 O1         -2.1371    0.0205    1.1263 O.3       1 <0>        -0.3856
      6 C4         -3.4950   -0.4123    1.2293 C.3       1 <0>         0.0316
      7 N1          0.7106   -0.4894    1.1889 N.am      1 <0>        -0.7232
      8 C5          2.0538   -0.5998    1.1737 C.2       1 <0>         0.5386
      9 O2          2.6758   -0.2974    0.1774 O.2       1 <0>        -0.5249
     10 C6          2.7826   -1.0990    2.3946 C.3       1 <0>        -0.1438
     11 S1          4.5656   -1.1340    2.0622 S.3       1 <0>         0.0240
     12 C7          5.2675   -1.7313    3.5640 C.ar      1 <0>         0.2495
     13 N2          6.5833   -1.8792    3.6601 N.ar      1 <0>        -0.5769
     14 C8          7.1069   -2.3299    4.7949 C.ar      1 <0>         0.4209
     15 O3          8.4466   -2.4904    4.9220 O.3       1 <0>        -0.6607
     16 C9          6.2502   -2.6344    5.8536 C.ar      1 <0>        -0.0403
     17 N3          4.9502   -2.4670    5.6990 N.ar      1 <0>        -0.2063
     18 N4          4.4750   -2.0232    4.5882 N.ar      1 <0>        -0.4098
     19 C10         6.8028   -3.1487    7.1578 C.3       1 <0>        -0.0101
     20 C11         7.1071   -1.9690    8.0834 C.3       1 <0>        -0.1653
     21 C12         7.6597   -2.4834    9.3877 C.2       1 <0>         0.4977
     22 O4          7.7975   -3.6823    9.5608 O.co2     1 <0>        -0.7016
     23 O5          7.9691   -1.7005   10.2697 O.co2     1 <0>        -0.7192
     24 H2          1.0039    1.9031    0.0027 H         1 <0>         0.0631
     25 H3         -0.5459    1.8868   -0.8726 H         1 <0>         0.0597
     26 H4         -0.5289    1.8773    0.9072 H         1 <0>         0.0665
     27 H5         -1.9334   -0.2470   -0.9122 H         1 <0>         0.0630
     28 H6         -1.4190   -1.6203    0.0965 H         1 <0>         0.0579
     29 H7         -3.9595    0.0525    2.0990 H         1 <0>         0.0863
     30 H8         -4.0379   -0.1231    0.3295 H         1 <0>         0.0391
     31 H9         -3.5235   -1.4965    1.3382 H         1 <0>         0.0417
     32 H10         0.2131   -0.7312    1.9857 H         1 <0>         0.4072
     33 H11         2.5826   -0.4337    3.2345 H         1 <0>         0.1191
     34 H12         2.4385   -2.1044    2.6374 H         1 <0>         0.1179
     35 H13         6.0695   -3.8019    7.6308 H         1 <0>         0.0611
     36 H14         7.7191   -3.7080    6.9688 H         1 <0>         0.0767
     37 H15         7.8404   -1.3159    7.6104 H         1 <0>         0.0562
     38 H16         6.1908   -1.4098    8.2724 H         1 <0>         0.0497
@<TRIPOS>BOND
     1    1    2 1
     2    1   24 1
     3    1   25 1
     4    1   26 1
     5    2    3 1
     6    2    4 1
     7    2    7 1
     8    4    5 1
     9    4   27 1
    10    4   28 1
    11    5    6 1
    12    6   29 1
    13    6   30 1
    14    6   31 1
    15    7    8 am
    16    7   32 1
    17    8    9 2
    18    8   10 1
    19   10   11 1
    20   10   33 1
    21   10   34 1
    22   11   12 1
    23   12   13 ar
    24   12   18 ar
    25   13   14 ar
    26   14   15 1
    27   14   16 ar
    28   16   17 ar
    29   16   19 1
    30   17   18 ar
    31   19   20 1
    32   19   35 1
    33   19   36 1
    34   20   21 1
    35   20   37 1
    36   20   38 1
    37   21   22 2
    38   21   23 1
@<TRIPOS>MOLECULE
ZINC42527085
   38    37     0     0     0
SMALL
USER_CHARGES

@<TRIPOS>ATOM
      1 C1         -0.0178    1.4608    0.0101 C.3       1 <0>         0.0828
      2 N1          0.0021   -0.0041    0.0020 N.am      1 <0>        -0.6360
      3 C2          0.0241   -0.7433    1.2666 C.3       1 <0>         0.1121
      4 C3         -1.4105   -1.0203    1.7205 C.3       1 <0>         0.0902
      5 H1         -1.9619   -0.0816    1.7754 H         1 <0>         0.0997
      6 C4         -1.3903   -1.6812    3.1003 C.3       1 <0>         0.0324
      7 O1         -2.7294   -1.8339    3.5750 O.3       1 <0>        -0.3787
      8 C5         -2.8233   -2.4448    4.8634 C.3       1 <0>         0.0308
      9 O2         -2.0465   -1.8923    0.7840 O.3       1 <0>        -0.5313
     10 C6          0.0001   -0.6716   -1.1688 C.2       1 <0>         0.7116
     11 O3          0.0166   -1.8873   -1.1755 O.2       1 <0>        -0.5955
     12 N2         -0.0202    0.0085   -2.3322 N.am      1 <0>        -0.6997
     13 C7         -0.0224   -0.7171   -3.6049 C.3       1 <0>         0.0924
     14 H2          0.5803   -1.6203   -3.5093 H         1 <0>         0.0739
     15 C8          0.5648    0.1741   -4.7011 C.3       1 <0>        -0.0823
     16 C9          2.0380    0.4533   -4.3969 C.3       1 <0>        -0.1748
     17 C10         2.6164    1.3311   -5.4766 C.2       1 <0>         0.4907
     18 O4          1.9152    1.6994   -6.4036 O.co2     1 <0>        -0.6976
     19 O5          3.7855    1.6731   -5.4232 O.co2     1 <0>        -0.7212
     20 C11        -1.4363   -1.0928   -3.9666 C.2       1 <0>         0.4979
     21 O6         -2.3648   -0.3887   -3.6079 O.co2     1 <0>        -0.6980
     22 O7         -1.6517   -2.1007   -4.6178 O.co2     1 <0>        -0.7057
     23 H3          1.0048    1.8381    0.0023 H         1 <0>         0.0507
     24 H4         -0.5450    1.8219   -0.8730 H         1 <0>         0.0721
     25 H5         -0.5280    1.8123    0.9069 H         1 <0>         0.0630
     26 H6          0.5496   -1.6879    1.1262 H         1 <0>         0.0858
     27 H7          0.5371   -0.1514    2.0246 H         1 <0>         0.0758
     28 H8         -0.9168   -2.6603    3.0272 H         1 <0>         0.0527
     29 H9         -0.8278   -1.0565    3.7942 H         1 <0>         0.0538
     30 H10        -3.8713   -2.5247    5.1522 H         1 <0>         0.0828
     31 H11        -2.3795   -3.4397    4.8270 H         1 <0>         0.0385
     32 H12        -2.2905   -1.8359    5.5939 H         1 <0>         0.0364
     33 H13        -1.6086   -2.7486    0.6838 H         1 <0>         0.3755
     34 H14        -0.0334    0.9784   -2.3269 H         1 <0>         0.3870
     35 H15         0.4819   -0.3311   -5.6634 H         1 <0>         0.0716
     36 H16         0.0164    1.1155   -4.7366 H         1 <0>         0.0586
     37 H17         2.1209    0.9585   -3.4346 H         1 <0>         0.0501
     38 H18         2.5864   -0.4881   -4.3614 H         1 <0>         0.0517
@<TRIPOS>BOND
     1    1    2 1
     2    1   23 1
     3    1   24 1
     4    1   25 1
     5    2    3 1
     6    2   10 am
     7    3    4 1
     8    3   26 1
     9    3   27 1
    10    4    5 1
    11    4    6 1
    12    4    9 1
    13    6    7 1
    14    6   28 1
    15    6   29 1
    16    7    8 1
    17    8   30 1
    18    8   31 1
    19    8   32 1
    20    9   33 1
    21   10   11 2
    22   10   12 am
    23   12   13 1
    24   12   34 1
    25   13   14 1
    26   13   15 1
    27   13   20 1
    28   15   16 1
    29   15   35 1
    30   15   36 1
    31   16   17 1
    32   16   37 1
    33   16   38 1
    34   17   18 2
    35   17   19 1
    36   20   21 2
    37   20   22 1
@<TRIPOS>MOLECULE
ZINC49607972
   36    35     0     0     0
SMALL
USER_CHARGES

@<TRIPOS>ATOM
      1 C1         -0.0187    1.5258    0.0104 C.3       1 <0>        -0.1475
      2 C2          0.0021   -0.0041    0.0020 C.3       1 <0>         0.0582
      3 O1          0.6709   -0.4649   -1.1737 O.3       1 <0>        -0.3623
      4 C3          0.7755   -1.7935   -1.3341 C.2       1 <0>         0.4318
      5 O2          0.3143   -2.5404   -0.5039 O.2       1 <0>        -0.4780
      6 C4          1.4679   -2.3535   -2.5498 C.3       1 <0>         0.1532
      7 N1          1.4501   -3.8172   -2.4911 N.am      1 <0>        -0.6265
      8 C5          0.3365   -4.5606   -3.0857 C.3       1 <0>         0.0852
      9 C6          2.4581   -4.4798   -1.8901 C.2       1 <0>         0.7139
     10 O3          3.3823   -3.8629   -1.3967 O.2       1 <0>        -0.5976
     11 N2          2.4417   -5.8264   -1.8361 N.am      1 <0>        -0.6930
     12 C7          3.5374   -6.5467   -1.1828 C.3       1 <0>         0.0893
     13 H1          4.4744   -6.0173   -1.3558 H         1 <0>         0.0762
     14 C8          3.6357   -7.9596   -1.7618 C.3       1 <0>        -0.0807
     15 C9          4.0276   -7.8795   -3.2385 C.3       1 <0>        -0.1757
     16 C10         4.1244   -9.2711   -3.8087 C.2       1 <0>         0.4908
     17 O4          3.9006  -10.2373   -3.0997 O.co2     1 <0>        -0.6974
     18 O5          4.4265   -9.4307   -4.9791 O.co2     1 <0>        -0.7210
     19 C11         3.2724   -6.6281    0.2984 C.2       1 <0>         0.4945
     20 O6          2.1863   -6.2969    0.7425 O.co2     1 <0>        -0.6946
     21 O7          4.1441   -7.0253    1.0528 O.co2     1 <0>        -0.7050
     22 H2          1.0039    1.9031    0.0027 H         1 <0>         0.0653
     23 H3         -0.5459    1.8868   -0.8726 H         1 <0>         0.0628
     24 H4         -0.5289    1.8773    0.9072 H         1 <0>         0.0737
     25 H5          0.5293   -0.3651    0.8851 H         1 <0>         0.0663
     26 H6         -1.0205   -0.3814    0.0098 H         1 <0>         0.0624
     27 H7          0.9501   -2.0196   -3.4490 H         1 <0>         0.1136
     28 H8          2.4999   -2.0034   -2.5737 H         1 <0>         0.1240
     29 H9          0.5656   -4.7870   -4.1270 H         1 <0>         0.0570
     30 H10         0.1857   -5.4900   -2.5365 H         1 <0>         0.0744
     31 H11        -0.5704   -3.9579   -3.0359 H         1 <0>         0.0637
     32 H12         1.7044   -6.3186   -2.2298 H         1 <0>         0.3880
     33 H13         4.3911   -8.5243   -1.2155 H         1 <0>         0.0771
     34 H14         2.6710   -8.4584   -1.6684 H         1 <0>         0.0557
     35 H15         3.2722   -7.3147   -3.7848 H         1 <0>         0.0502
     36 H16         4.9923   -7.3807   -3.3319 H         1 <0>         0.0523
@<TRIPOS>BOND
     1    1    2 1
     2    1   22 1
     3    1   23 1
     4    1   24 1
     5    2    3 1
     6    2   25 1
     7    2   26 1
     8    3    4 1
     9    4    5 2
    10    4    6 1
    11    6    7 1
    12    6   27 1
    13    6   28 1
    14    7    8 1
    15    7    9 am
    16    8   29 1
    17    8   30 1
    18    8   31 1
    19    9   10 2
    20    9   11 am
    21   11   12 1
    22   11   32 1
    23   12   13 1
    24   12   14 1
    25   12   19 1
    26   14   15 1
    27   14   33 1
    28   14   34 1
    29   15   16 1
    30   15   35 1
    31   15   36 1
    32   16   17 2
    33   16   18 1
    34   19   20 2
    35   19   21 1
@<TRIPOS>MOLECULE
ZINC03152645
   32    31     0     0     0
SMALL
USER_CHARGES
3-[3-(2-carboxyethylcarbamoyl)-2,2,3,3-tetrafluoro-propanoyl]aminopropanoic acid
@<TRIPOS>ATOM
      1 C1        -11.7473    1.3496    2.6739 C.3       1 <0>        -0.1720
      2 C2        -10.8548    1.9159    1.5677 C.3       1 <0>         0.1329
      3 N1         -9.5762    1.2007    1.5578 N.am      1 <0>        -0.6974
      4 C3         -8.6261    1.5314    0.6609 C.2       1 <0>         0.4823
      5 O1         -8.8295    2.4210   -0.1379 O.2       1 <0>        -0.4840
      6 C4         -7.3109    0.7957    0.6507 C.3       1 <0>         0.2642
      7 C5         -6.2305    1.6910    0.0408 C.3       1 <0>         0.2642
      8 C6         -4.9153    0.9553    0.0306 C.2       1 <0>         0.4822
      9 O2         -4.8988   -0.2574    0.0239 O.2       1 <0>        -0.4840
     10 N2         -3.7573    1.6450    0.0288 N.am      1 <0>        -0.6974
     11 C7         -2.4788    0.9298    0.0189 C.3       1 <0>         0.1329
     12 C8         -1.3295    1.9397    0.0189 C.3       1 <0>        -0.1719
     13 C9         -0.0143    1.2041    0.0087 C.2       1 <0>         0.4673
     14 O3          0.0021   -0.0041    0.0020 O.co2     1 <0>        -0.6349
     15 F1         -6.1064    2.8575    0.8031 F         1 <0>        -0.1598
     16 F2         -6.5876    2.0261   -1.2697 F         1 <0>        -0.1426
     17 F3         -7.4350   -0.3708   -0.1116 F         1 <0>        -0.1426
     18 F4         -6.9538    0.4606    1.9612 F         1 <0>        -0.1598
     19 C10       -13.0625    2.0853    2.6842 C.2       1 <0>         0.4673
     20 O4        -13.2651    2.9716    1.8884 O.co2     1 <0>        -0.6349
     21 H1        -11.9251    0.2900    2.4906 H         1 <0>         0.0742
     22 H2        -11.2540    1.4738    3.6380 H         1 <0>         0.0747
     23 H3        -10.6769    2.9755    1.7511 H         1 <0>         0.0795
     24 H4        -11.3480    1.7918    0.6037 H         1 <0>         0.0790
     25 H5         -9.4135    0.4892    2.1967 H         1 <0>         0.4064
     26 H6         -3.7705    2.6149    0.0341 H         1 <0>         0.4064
     27 H7         -2.4168    0.3088   -0.8748 H         1 <0>         0.0790
     28 H8         -2.4084    0.2992    0.9051 H         1 <0>         0.0795
     29 H9         -1.3915    2.5607    0.9126 H         1 <0>         0.0747
     30 H10        -1.4000    2.5704   -0.8673 H         1 <0>         0.0742
     31 O5          1.1389    1.8910    0.0013 O.co2     1 <0>        -0.7699
     32 O6        -14.0088    1.7560    3.5774 O.co2     1 <0>        -0.7699
@<TRIPOS>BOND
     1    1    2 1
     2    1   19 1
     3    1   21 1
     4    1   22 1
     5    2    3 1
     6    2   23 1
     7    2   24 1
     8    3    4 am
     9    3   25 1
    10    4    5 2
    11    4    6 1
    12    6    7 1
    13    6   17 1
    14    6   18 1
    15    7    8 1
    16    7   15 1
    17    7   16 1
    18    8    9 2
    19    8   10 am
    20   10   11 1
    21   10   26 1
    22   11   12 1
    23   11   27 1
    24   11   28 1
    25   12   13 1
    26   12   29 1
    27   12   30 1
    28   13   14 2
    29   13   31 1
    30   19   20 2
    31   19   32 1
@<TRIPOS>MOLECULE
ZINC19720228
   32    33     0     0     0
SMALL
USER_CHARGES
5-[(4,6-dioxo-2-thioxo-hexahydropyrimidin-5-ylidene)methyl]-2-ethoxy-benzoic acid
@<TRIPOS>ATOM
      1 C1         -2.9768    6.3754    1.9159 C.3       1 <0>        -0.1467
      2 C2         -1.6623    5.6364    1.6574 C.3       1 <0>         0.0431
      3 O1         -1.9420    4.3309    1.1480 O.3       1 <0>        -0.2687
      4 C3         -0.8794    3.5409    0.8647 C.ar      1 <0>         0.1839
      5 C4          0.4121    4.0130    1.0730 C.ar      1 <0>        -0.2423
      6 C5          1.4898    3.2254    0.7904 C.ar      1 <0>         0.0250
      7 C6          1.3068    1.9270    0.2852 C.ar      1 <0>        -0.1632
      8 C7          0.0137    1.4380    0.0704 C.ar      1 <0>         0.0013
      9 C8         -1.0829    2.2471    0.3546 C.ar      1 <0>        -0.1729
     10 C9         -2.4514    1.7472    0.1268 C.2       1 <0>         0.4989
     11 O2         -3.4064    2.4559    0.3759 O.co2     1 <0>        -0.6195
     12 O3         -2.6428    0.5045   -0.3576 O.co2     1 <0>        -0.7687
     13 C10         2.4672    1.0876   -0.0162 C.2       1 <0>         0.1019
     14 C11         3.5389    1.6144   -0.7096 C.2       1 <0>        -0.3177
     15 C12         3.4616    2.9381   -1.3595 C.2       1 <0>         0.5276
     16 O4          2.4456    3.6044   -1.3018 O.3       1 <0>        -0.4944
     17 N1          4.5510    3.3905   -2.0141 N.2       1 <0>        -0.6292
     18 C13         5.6747    2.6642   -2.0910 C.2       1 <0>         0.5594
     19 S1          7.0034    3.3173   -2.9507 S.2       1 <0>        -0.7414
     20 N2          5.8147    1.4543   -1.5318 N.am      1 <0>        -0.6650
     21 C14         4.8114    0.8764   -0.8396 C.2       1 <0>         0.5650
     22 O5          4.9511   -0.2221   -0.3360 O.2       1 <0>        -0.5345
     23 H1         -2.7615    7.3803    2.3080 H         1 <0>         0.0677
     24 H2         -3.5740    5.8153    2.6506 H         1 <0>         0.0647
     25 H3         -3.5400    6.4618    0.9750 H         1 <0>         0.0662
     26 H4         -1.0651    6.1965    0.9227 H         1 <0>         0.0574
     27 H5         -1.0991    5.5500    2.5983 H         1 <0>         0.0541
     28 H6          0.5630    5.0097    1.4606 H         1 <0>         0.1211
     29 H7          2.4885    3.6016    0.9561 H         1 <0>         0.1132
     30 H8         -0.1327    0.4408   -0.3176 H         1 <0>         0.1373
     31 H9          2.4857    0.0371    0.3096 H         1 <0>         0.1405
     32 H10         6.7646    0.9087   -1.6319 H         1 <0>         0.4360
@<TRIPOS>BOND
     1    1    2 1
     2    1   23 1
     3    1   24 1
     4    1   25 1
     5    2    3 1
     6    2   26 1
     7    2   27 1
     8    3    4 1
     9    4    9 ar
    10    4    5 ar
    11    5    6 ar
    12    5   28 1
    13    6    7 ar
    14    6   29 1
    15    7    8 ar
    16    7   13 1
    17    8    9 ar
    18    8   30 1
    19    9   10 1
    20   10   11 2
    21   10   12 1
    22   13   14 2
    23   13   31 1
    24   14   21 1
    25   14   15 1
    26   15   16 1
    27   15   17 2
    28   17   18 1
    29   18   19 2
    30   18   20 1
    31   20   21 am
    32   20   32 1
    33   21   22 2
@<TRIPOS>MOLECULE
ZINC40520482
   26    25     0     0     0
SMALL
USER_CHARGES

@<TRIPOS>ATOM
      1 C1          0.0180   -1.1779   -0.0044 C.1       1 <0>        -0.2007
      2 C2          0.0021   -0.0041    0.0020 C.1       1 <0>        -0.1836
      3 C3         -0.0179    1.4678    0.0101 C.3       1 <0>         0.2478
      4 N1          1.3565    1.9749   -0.0003 N.am      1 <0>        -0.7551
      5 C4          1.5848    3.3031    0.0047 C.2       1 <0>         0.7044
      6 O1          0.6500    4.0806    0.0178 O.2       1 <0>        -0.5997
      7 N2          2.8492    3.7696   -0.0049 N.am      1 <0>        -0.6992
      8 C5          3.0973    5.2135    0.0005 C.3       1 <0>         0.0924
      9 H1          2.3236    5.7173   -0.5789 H         1 <0>         0.0762
     10 C6          4.4663    5.4980   -0.6207 C.3       1 <0>        -0.0823
     11 C7          4.4501    5.0956   -2.0968 C.3       1 <0>        -0.1759
     12 C8          5.7985    5.3758   -2.7086 C.2       1 <0>         0.4905
     13 O2          6.6898    5.8532   -2.0273 O.co2     1 <0>        -0.6978
     14 O3          5.9981    5.1252   -3.8850 O.co2     1 <0>        -0.7207
     15 C9          3.0739    5.7219    1.4189 C.2       1 <0>         0.4968
     16 O4          3.4139    4.9915    2.3340 O.co2     1 <0>        -0.7007
     17 O5          2.7150    6.8637    1.6514 O.co2     1 <0>        -0.7034
     18 H2          0.0322   -2.2278   -0.0102 H         1 <0>         0.2184
     19 H3         -0.5451    1.8289   -0.8729 H         1 <0>         0.0864
     20 H4         -0.5281    1.8193    0.9069 H         1 <0>         0.0869
     21 H5          2.1022    1.3546   -0.0107 H         1 <0>         0.3945
     22 H6          3.5949    3.1494   -0.0154 H         1 <0>         0.3890
     23 H7          4.6895    6.5616   -0.5365 H         1 <0>         0.0724
     24 H8          5.2298    4.9238   -0.0959 H         1 <0>         0.0598
     25 H9          4.2269    4.0320   -2.1810 H         1 <0>         0.0512
     26 H10         3.6866    5.6698   -2.6216 H         1 <0>         0.0525
@<TRIPOS>BOND
     1    1    2 3
     2    1   18 1
     3    2    3 1
     4    3    4 1
     5    3   19 1
     6    3   20 1
     7    4    5 am
     8    4   21 1
     9    5    6 2
    10    5    7 am
    11    7    8 1
    12    7   22 1
    13    8    9 1
    14    8   10 1
    15    8   15 1
    16   10   11 1
    17   10   23 1
    18   10   24 1
    19   11   12 1
    20   11   25 1
    21   11   26 1
    22   12   13 2
    23   12   14 1
    24   15   16 2
    25   15   17 1
@<TRIPOS>MOLECULE
ZINC42711097
   39    38     0     0     0
SMALL
USER_CHARGES

@<TRIPOS>ATOM
      1 C1         -0.0187    1.5258    0.0104 C.3       1 <0>        -0.1343
      2 C2          0.0021   -0.0041    0.0020 C.3       1 <0>        -0.0995
      3 H1         -1.0205   -0.3814    0.0098 H         1 <0>         0.1067
      4 C3          0.7421   -0.5109    1.2415 C.3       1 <0>         0.1557
      5 N1         -0.0083   -0.1401    2.4439 N.am      1 <0>        -0.6404
      6 C4         -1.0253   -1.0472    2.9815 C.3       1 <0>         0.0828
      7 C5          0.2370    1.0356    3.0555 C.2       1 <0>         0.7106
      8 O1          1.0810    1.7885    2.6093 O.2       1 <0>        -0.5925
      9 N2         -0.4533    1.3768    4.1616 N.am      1 <0>        -0.6992
     10 C6         -0.1867    2.6547    4.8264 C.3       1 <0>         0.0904
     11 H2          0.0566    3.4095    4.0785 H         1 <0>         0.0756
     12 C7         -1.4276    3.0920    5.6073 C.3       1 <0>        -0.0803
     13 C8         -2.5713    3.3745    4.6310 C.3       1 <0>        -0.1752
     14 C9         -3.7935    3.8052    5.4002 C.2       1 <0>         0.4902
     15 O2         -3.7535    3.8794    6.6165 O.co2     1 <0>        -0.6972
     16 O3         -4.8223    4.0795    4.8062 O.co2     1 <0>        -0.7211
     17 C10         0.9734    2.4951    5.7749 C.2       1 <0>         0.4941
     18 O4          1.5262    1.4141    5.8855 O.co2     1 <0>        -0.6979
     19 O5          1.3591    3.4471    6.4319 O.co2     1 <0>        -0.7035
     20 C11         0.7074   -0.4901   -1.2379 C.2       1 <0>         0.4729
     21 O6          1.7002   -1.1719   -1.1401 O.2       1 <0>        -0.5087
     22 O7          0.2329   -0.1655   -2.4508 O.3       1 <0>        -0.3531
     23 C12         0.9516   -0.6605   -3.5824 C.3       1 <0>         0.0333
     24 H3          1.0039    1.9031    0.0027 H         1 <0>         0.0663
     25 H4         -0.5459    1.8868   -0.8726 H         1 <0>         0.0565
     26 H5         -0.5289    1.8773    0.9072 H         1 <0>         0.0800
     27 H6          0.8346   -1.5958    1.1912 H         1 <0>         0.0778
     28 H7          1.7350   -0.0630    1.2804 H         1 <0>         0.0920
     29 H8         -0.5642   -1.7253    3.6997 H         1 <0>         0.0532
     30 H9         -1.8038   -0.4674    3.4773 H         1 <0>         0.0698
     31 H10        -1.4645   -1.6240    2.1675 H         1 <0>         0.0635
     32 H11        -1.1267    0.7761    4.5176 H         1 <0>         0.3859
     33 H12        -1.7233    2.2985    6.2936 H         1 <0>         0.0537
     34 H13        -1.2011    3.9959    6.1729 H         1 <0>         0.0785
     35 H14        -2.2755    4.1680    3.9447 H         1 <0>         0.0517
     36 H15        -2.7977    2.4707    4.0654 H         1 <0>         0.0490
     37 H16         1.9738   -0.2830   -3.5572 H         1 <0>         0.0585
     38 H17         0.9660   -1.7501   -3.5554 H         1 <0>         0.0568
     39 H18         0.4632   -0.3262   -4.4977 H         1 <0>         0.0974
@<TRIPOS>BOND
     1    1    2 1
     2    1   24 1
     3    1   25 1
     4    1   26 1
     5    2    3 1
     6    2    4 1
     7    2   20 1
     8    4    5 1
     9    4   27 1
    10    4   28 1
    11    5    6 1
    12    5    7 am
    13    6   29 1
    14    6   30 1
    15    6   31 1
    16    7    8 2
    17    7    9 am
    18    9   10 1
    19    9   32 1
    20   10   11 1
    21   10   12 1
    22   10   17 1
    23   12   13 1
    24   12   33 1
    25   12   34 1
    26   13   14 1
    27   13   35 1
    28   13   36 1
    29   14   15 2
    30   14   16 1
    31   17   18 2
    32   17   19 1
    33   20   21 2
    34   20   22 1
    35   22   23 1
    36   23   37 1
    37   23   38 1
    38   23   39 1
@<TRIPOS>MOLECULE
ZINC48798850
   32    33     0     0     0
SMALL
USER_CHARGES

@<TRIPOS>ATOM
      1 C1         -0.0187    1.5258    0.0104 C.3       1 <0>        -0.1441
      2 C2          0.0021   -0.0041    0.0020 C.3       1 <0>         0.0433
      3 O1          0.6709   -0.4649   -1.1737 O.3       1 <0>        -0.2647
      4 C3          0.7765   -1.8070   -1.3358 C.ar      1 <0>         0.1889
      5 C4          0.2433   -2.6677   -0.3875 C.ar      1 <0>        -0.2564
      6 C5          0.3511   -4.0338   -0.5541 C.ar      1 <0>         0.0071
      7 C6          0.9915   -4.5569   -1.6665 C.ar      1 <0>        -0.6706
      8 C7          1.5272   -3.7186   -2.6187 C.ar      1 <0>         0.0481
      9 C8          1.4206   -2.3321   -2.4663 C.ar      1 <0>        -0.1956
     10 C9          1.9856   -1.4299   -3.4824 C.2       1 <0>         0.5288
     11 O2          2.5463   -1.8919   -4.4667 O.co2     1 <0>        -0.6929
     12 O3          1.8945   -0.2179   -3.3429 O.co2     1 <0>        -0.6793
     13 S1          1.1212   -6.3031   -1.8629 S.o2      1 <0>         2.6241
     14 O4          2.2401   -6.5347   -2.7076 O.2       1 <0>        -1.0312
     15 O5          1.0188   -6.8668   -0.5625 O.2       1 <0>        -1.0424
     16 N1         -0.2165   -6.8022   -2.7018 N.2       1 <0>        -1.0607
     17 C10        -0.3853   -8.1577   -3.0078 C.2       1 <0>         0.3790
     18 C11        -1.4630   -8.7159   -3.7143 C.2       1 <0>        -0.2785
     19 C12        -1.2561  -10.0497   -3.8006 C.2       1 <0>         0.0364
     20 N2         -0.0938  -10.3297   -3.1744 N.pl3     1 <0>        -0.5075
     21 H1          0.3054  -11.2088   -3.0804 H         1 <0>         0.4179
     22 N3          0.4385   -9.1283   -2.6895 N.2       1 <0>        -0.4265
     23 H2          1.0039    1.9031    0.0027 H         1 <0>         0.0645
     24 H3         -0.5459    1.8868   -0.8726 H         1 <0>         0.0651
     25 H4         -0.5289    1.8773    0.9072 H         1 <0>         0.0654
     26 H5          0.5293   -0.3651    0.8851 H         1 <0>         0.0521
     27 H6         -1.0205   -0.3814    0.0098 H         1 <0>         0.0533
     28 H7         -0.2567   -2.2684    0.4826 H         1 <0>         0.1210
     29 H8         -0.0659   -4.6992    0.1873 H         1 <0>         0.1287
     30 H9          2.0255   -4.1309   -3.4836 H         1 <0>         0.1453
     31 H10        -2.3073   -8.1761   -4.1168 H         1 <0>         0.1292
     32 H11        -1.9059  -10.7639   -4.2844 H         1 <0>         0.1525
@<TRIPOS>BOND
     1    1    2 1
     2    1   23 1
     3    1   24 1
     4    1   25 1
     5    2    3 1
     6    2   26 1
     7    2   27 1
     8    3    4 1
     9    4    9 ar
    10    4    5 ar
    11    5    6 ar
    12    5   28 1
    13    6    7 ar
    14    6   29 1
    15    7    8 ar
    16    7   13 1
    17    8    9 ar
    18    8   30 1
    19    9   10 1
    20   10   11 2
    21   10   12 1
    22   13   14 2
    23   13   15 2
    24   13   16 1
    25   16   17 1
    26   17   22 2
    27   17   18 1
    28   18   19 2
    29   18   31 1
    30   19   20 1
    31   19   32 1
    32   20   21 1
    33   20   22 1
@<TRIPOS>MOLECULE
ZINC13274664
   32    32     0     0     0
SMALL
USER_CHARGES
3-[4-(carboxymethylcarbamoyl)-2-nitro-phenyl]sulfanylpropanoic acid
@<TRIPOS>ATOM
      1 C1         -1.3220    3.3299    0.0323 C.ar      1 <0>        -0.0118
      2 C2         -2.5260    3.9965    0.0367 C.ar      1 <0>        -0.1421
      3 C3         -3.7189    3.2771    0.0385 C.ar      1 <0>        -0.0211
      4 C4         -3.6954    1.8842    0.0307 C.ar      1 <0>        -0.0526
      5 C5         -2.5037    1.2176    0.0205 C.ar      1 <0>         0.0199
      6 C6         -1.3015    1.9318    0.0187 C.ar      1 <0>        -0.1446
      7 C7         -0.0144    1.2118    0.0087 C.2       1 <0>         0.5546
      8 O1          0.0021   -0.0041    0.0020 O.2       1 <0>        -0.5481
      9 N1          1.1435    1.9015    0.0014 N.am      1 <0>        -0.6965
     10 C8          2.4220    1.1864   -0.0147 C.3       1 <0>         0.0761
     11 C9          3.5540    2.1812   -0.0202 C.2       1 <0>         0.4597
     12 O2          3.3171    3.3659   -0.0115 O.co2     1 <0>        -0.6328
     13 N2         -4.9659    1.1247    0.0331 N.pl3     1 <0>         0.0369
     14 O3         -4.9474   -0.0931    0.0260 O.2       1 <0>        -0.1783
     15 O4         -6.0298    1.7176    0.0422 O.3       1 <0>        -0.1419
     16 S1         -5.2604    4.1304    0.0510 S.3       1 <0>         0.0037
     17 C10        -4.7918    5.8829    0.0582 C.3       1 <0>        -0.1250
     18 C11        -6.0536    6.7481    0.0693 C.3       1 <0>        -0.1404
     19 C12        -5.6643    8.2040    0.0753 C.2       1 <0>         0.4687
     20 O5         -4.4974    8.5173    0.0710 O.co2     1 <0>        -0.6356
     21 H1         -0.3956    3.8851    0.0350 H         1 <0>         0.1532
     22 H2         -2.5460    5.0763    0.0431 H         1 <0>         0.1590
     23 H3         -2.4897    0.1377    0.0142 H         1 <0>         0.1658
     24 H4          1.1303    2.8714    0.0067 H         1 <0>         0.4080
     25 H5          2.4967    0.5558    0.8712 H         1 <0>         0.0763
     26 H6          2.4797    0.5654   -0.9086 H         1 <0>         0.0763
     27 H7         -4.1970    6.0963    0.9463 H         1 <0>         0.0929
     28 H8         -4.2061    6.1060   -0.8336 H         1 <0>         0.0929
     29 H9         -6.6484    6.5347   -0.8188 H         1 <0>         0.0763
     30 H10        -6.6392    6.5250    0.9611 H         1 <0>         0.0763
     31 O6          4.8254    1.7510   -0.0346 O.co2     1 <0>        -0.7579
     32 O7         -6.6139    9.1526    0.0853 O.co2     1 <0>        -0.7679
@<TRIPOS>BOND
     1    1    6 ar
     2    1    2 ar
     3    1   21 1
     4    2    3 ar
     5    2   22 1
     6    3    4 ar
     7    3   16 1
     8    4    5 ar
     9    4   13 1
    10    5    6 ar
    11    5   23 1
    12    6    7 1
    13    7    8 2
    14    7    9 am
    15    9   10 1
    16    9   24 1
    17   10   11 1
    18   10   25 1
    19   10   26 1
    20   11   12 2
    21   11   31 1
    22   13   14 2
    23   13   15 1
    24   16   17 1
    25   17   18 1
    26   17   27 1
    27   17   28 1
    28   18   19 1
    29   18   29 1
    30   18   30 1
    31   19   20 2
    32   19   32 1
@<TRIPOS>MOLECULE
ZINC37744918
   25    26     0     0     0
SMALL
USER_CHARGES

@<TRIPOS>ATOM
      1 C1         -0.0169    1.3934    0.0097 C.ar      1 <0>        -0.1563
      2 C2          1.1678    2.0992    0.0022 C.ar      1 <0>        -0.1219
      3 C3          2.3789    1.4278   -0.0129 C.ar      1 <0>        -0.0776
      4 C4          2.4082    0.0349   -0.0207 C.ar      1 <0>         0.2392
      5 C5          1.2244   -0.6820   -0.0132 C.ar      1 <0>        -0.1177
      6 C6          0.0021   -0.0041    0.0020 C.ar      1 <0>        -0.1129
      7 C7         -1.2629   -0.7607    0.0100 C.2       1 <0>         0.5273
      8 O1         -2.3314   -0.1655    0.0233 O.co2     1 <0>        -0.7043
      9 O2         -1.2441   -1.9836    0.0032 O.co2     1 <0>        -0.6961
     10 N1          3.6339   -0.6388   -0.0364 N.2       1 <0>        -1.0979
     11 S1          5.0503    0.2191   -0.0459 S.o2      1 <0>         2.6380
     12 O3          5.1000    0.9073   -1.2881 O.2       1 <0>        -1.0353
     13 O4          5.1247    0.8940    1.2024 O.2       1 <0>        -1.0408
     14 C8          6.3678   -0.9506   -0.0652 C.2       1 <0>        -0.7512
     15 C9          6.9704   -1.4891    1.0202 C.2       1 <0>         0.1616
     16 N2          7.9257   -2.3358    0.5827 N.pl3     1 <0>        -0.4818
     17 H1          8.5185   -2.8643    1.1396 H         1 <0>         0.4333
     18 N3          7.9097   -2.3172   -0.8180 N.2       1 <0>        -0.3152
     19 C10         6.9717   -1.4913   -1.2051 C.2       1 <0>         0.1335
     20 F1          3.5356    2.1257   -0.0207 F         1 <0>        -0.1519
     21 H2         -0.9593    1.9206    0.0260 H         1 <0>         0.1156
     22 H3          1.1511    3.1790    0.0077 H         1 <0>         0.1052
     23 H4          1.2450   -1.7618   -0.0195 H         1 <0>         0.1253
     24 H5          6.7299   -1.2788    2.0519 H         1 <0>         0.1888
     25 H6          6.7108   -1.2639   -2.2281 H         1 <0>         0.1930
@<TRIPOS>BOND
     1    1    6 ar
     2    1    2 ar
     3    1   21 1
     4    2    3 ar
     5    2   22 1
     6    3    4 ar
     7    3   20 1
     8    4    5 ar
     9    4   10 1
    10    5    6 ar
    11    5   23 1
    12    6    7 1
    13    7    8 2
    14    7    9 1
    15   10   11 1
    16   11   12 2
    17   11   13 2
    18   11   14 1
    19   14   19 1
    20   14   15 2
    21   15   16 1
    22   15   24 1
    23   16   17 1
    24   16   18 1
    25   18   19 2
    26   19   25 1
@<TRIPOS>MOLECULE
ZINC42595812
   43    42     0     0     0
SMALL
USER_CHARGES

@<TRIPOS>ATOM
      1 C1         -2.5234   -2.8068   -0.0841 C.3       1 <0>        -0.1526
      2 C2         -2.1840   -1.5544   -0.8948 C.3       1 <0>        -0.1314
      3 C3         -1.2551   -0.6542   -0.0777 C.3       1 <0>         0.1336
      4 H1         -0.3781   -1.2227    0.2320 H         1 <0>         0.0878
      5 C4         -0.8155    0.5356   -0.9332 C.3       1 <0>        -0.1597
      6 N1         -1.9651   -0.1675    1.1077 N.am      1 <0>        -0.6257
      7 C5         -3.1150    0.7276    0.9567 C.3       1 <0>         0.1367
      8 C6         -4.3958   -0.1019    0.8452 C.3       1 <0>         0.0351
      9 O1         -4.6191   -0.8005    2.0716 O.3       1 <0>        -0.3536
     10 C7         -5.7969   -1.6097    2.0734 C.3       1 <0>         0.0359
     11 C8         -1.5605   -0.5431    2.3372 C.2       1 <0>         0.7131
     12 O2         -2.0874   -0.0649    3.3231 O.2       1 <0>        -0.5862
     13 N2         -0.5719   -1.4489    2.4738 N.am      1 <0>        -0.7032
     14 C9         -0.2048   -1.9373    3.8053 C.3       1 <0>         0.0927
     15 H2         -0.3122   -1.1307    4.5305 H         1 <0>         0.0728
     16 C10         1.2474   -2.4188    3.7894 C.3       1 <0>        -0.0813
     17 C11         2.1754   -1.2318    3.5236 C.3       1 <0>        -0.1743
     18 C12         3.6058   -1.7061    3.5079 C.2       1 <0>         0.4907
     19 O3          3.8594   -2.8843    3.6922 O.co2     1 <0>        -0.6982
     20 O4          4.5093   -0.9115    3.3109 O.co2     1 <0>        -0.7213
     21 C13        -1.1089   -3.0806    4.1879 C.2       1 <0>         0.4989
     22 O5         -1.5730   -3.8060    3.3248 O.co2     1 <0>        -0.6966
     23 O6         -1.3763   -3.2802    5.3606 O.co2     1 <0>        -0.7080
     24 H3         -3.1852   -3.4481   -0.6662 H         1 <0>         0.0394
     25 H4         -1.6065   -3.3478    0.1498 H         1 <0>         0.0612
     26 H5         -3.0204   -2.5168    0.8417 H         1 <0>         0.0733
     27 H6         -1.6870   -1.8445   -1.8205 H         1 <0>         0.0624
     28 H7         -3.1009   -1.0135   -1.1287 H         1 <0>         0.0601
     29 H8         -1.6847    1.1438   -1.1837 H         1 <0>         0.0556
     30 H9         -0.0985    1.1385   -0.3761 H         1 <0>         0.0610
     31 H10        -0.3503    0.1721   -1.8495 H         1 <0>         0.0629
     32 H11        -3.1814    1.3836    1.8247 H         1 <0>         0.0878
     33 H12        -2.9918    1.3286    0.0557 H         1 <0>         0.0815
     34 H13        -5.2397    0.5581    0.6441 H         1 <0>         0.0402
     35 H14        -4.2941   -0.8198    0.0314 H         1 <0>         0.0536
     36 H15        -6.6699   -0.9810    1.8978 H         1 <0>         0.0276
     37 H16        -5.7242   -2.3589    1.2851 H         1 <0>         0.0336
     38 H17        -5.8951   -2.1063    3.0388 H         1 <0>         0.0832
     39 H18        -0.1035   -1.7774    1.6905 H         1 <0>         0.3834
     40 H19         1.4934   -2.8635    4.7537 H         1 <0>         0.0698
     41 H20         1.3749   -3.1629    3.0031 H         1 <0>         0.0570
     42 H21         1.9295   -0.7872    2.5592 H         1 <0>         0.0496
     43 H22         2.0479   -0.4877    4.3098 H         1 <0>         0.0517
@<TRIPOS>BOND
     1    1    2 1
     2    1   24 1
     3    1   25 1
     4    1   26 1
     5    2    3 1
     6    2   27 1
     7    2   28 1
     8    3    4 1
     9    3    5 1
    10    3    6 1
    11    5   29 1
    12    5   30 1
    13    5   31 1
    14    6    7 1
    15    6   11 am
    16    7    8 1
    17    7   32 1
    18    7   33 1
    19    8    9 1
    20    8   34 1
    21    8   35 1
    22    9   10 1
    23   10   36 1
    24   10   37 1
    25   10   38 1
    26   11   12 2
    27   11   13 am
    28   13   14 1
    29   13   39 1
    30   14   15 1
    31   14   16 1
    32   14   21 1
    33   16   17 1
    34   16   40 1
    35   16   41 1
    36   17   18 1
    37   17   42 1
    38   17   43 1
    39   18   19 2
    40   18   20 1
    41   21   22 2
    42   21   23 1
@<TRIPOS>MOLECULE
ZINC45648865
   39    38     0     0     0
SMALL
USER_CHARGES

@<TRIPOS>ATOM
      1 C1         -0.0187    1.5258    0.0104 C.3       1 <0>        -0.1513
      2 C2          0.0021   -0.0041    0.0020 C.3       1 <0>         0.0586
      3 O1          0.6709   -0.4649   -1.1737 O.3       1 <0>        -0.3545
      4 C3          0.7755   -1.7935   -1.3341 C.2       1 <0>         0.4730
      5 O2          0.3143   -2.5404   -0.5039 O.2       1 <0>        -0.5120
      6 C4          1.4679   -2.3535   -2.5498 C.3       1 <0>        -0.1347
      7 C5          1.4493   -3.8821   -2.4885 C.3       1 <0>         0.1544
      8 N1          2.1225   -4.4265   -3.6703 N.am      1 <0>        -0.6418
      9 C6          3.5637   -4.6871   -3.6373 C.3       1 <0>         0.0820
     10 C7          1.4159   -4.6875   -4.7879 C.2       1 <0>         0.7077
     11 O3          0.2197   -4.4712   -4.8153 O.2       1 <0>        -0.5979
     12 N2          2.0352   -5.1884   -5.8752 N.am      1 <0>        -0.6971
     13 C8          1.2671   -5.4721   -7.0900 C.3       1 <0>         0.0894
     14 H1          0.2718   -5.8226   -6.8170 H         1 <0>         0.0759
     15 C9          1.9822   -6.5516   -7.9050 C.3       1 <0>        -0.0806
     16 C10         1.9921   -7.8629   -7.1169 C.3       1 <0>        -0.1759
     17 C11         2.6965   -8.9262   -7.9196 C.2       1 <0>         0.4906
     18 O4          3.1486   -8.6598   -9.0201 O.co2     1 <0>        -0.6977
     19 O5          2.8142  -10.0528   -7.4686 O.co2     1 <0>        -0.7206
     20 C12         1.1488   -4.2161   -7.9144 C.2       1 <0>         0.4964
     21 O6          1.8054   -3.2311   -7.6223 O.co2     1 <0>        -0.6999
     22 O7          0.3966   -4.1849   -8.8734 O.co2     1 <0>        -0.7033
     23 H2          1.0039    1.9031    0.0027 H         1 <0>         0.0651
     24 H3         -0.5459    1.8868   -0.8726 H         1 <0>         0.0673
     25 H4         -0.5289    1.8773    0.9072 H         1 <0>         0.0751
     26 H5          0.5293   -0.3651    0.8851 H         1 <0>         0.0642
     27 H6         -1.0205   -0.3814    0.0098 H         1 <0>         0.0660
     28 H7          0.9501   -2.0196   -3.4490 H         1 <0>         0.1175
     29 H8          2.4999   -2.0034   -2.5737 H         1 <0>         0.1048
     30 H9          1.9671   -4.2160   -1.5894 H         1 <0>         0.0777
     31 H10         0.4173   -4.2322   -2.4647 H         1 <0>         0.0909
     32 H11         3.7409   -5.7058   -3.2924 H         1 <0>         0.0524
     33 H12         3.9780   -4.5652   -4.6381 H         1 <0>         0.0722
     34 H13         4.0446   -3.9843   -2.9569 H         1 <0>         0.0645
     35 H14         2.9895   -5.3609   -5.8533 H         1 <0>         0.3873
     36 H15         1.4594   -6.6995   -8.8499 H         1 <0>         0.0766
     37 H16         3.0075   -6.2385   -8.1022 H         1 <0>         0.0554
     38 H17         2.5150   -7.7150   -6.1720 H         1 <0>         0.0501
     39 H18         0.9669   -8.1760   -6.9197 H         1 <0>         0.0521
@<TRIPOS>BOND
     1    1    2 1
     2    1   23 1
     3    1   24 1
     4    1   25 1
     5    2    3 1
     6    2   26 1
     7    2   27 1
     8    3    4 1
     9    4    5 2
    10    4    6 1
    11    6    7 1
    12    6   28 1
    13    6   29 1
    14    7    8 1
    15    7   30 1
    16    7   31 1
    17    8    9 1
    18    8   10 am
    19    9   32 1
    20    9   33 1
    21    9   34 1
    22   10   11 2
    23   10   12 am
    24   12   13 1
    25   12   35 1
    26   13   14 1
    27   13   15 1
    28   13   20 1
    29   15   16 1
    30   15   36 1
    31   15   37 1
    32   16   17 1
    33   16   38 1
    34   16   39 1
    35   17   18 2
    36   17   19 1
    37   20   21 2
    38   20   22 1
@<TRIPOS>MOLECULE
ZINC62216283
   35    36     0     0     0
SMALL
USER_CHARGES

@<TRIPOS>ATOM
      1 C1         -0.0349    1.5450   -0.0030 C.3       1 <0>        -0.1347
      2 C2         -0.0029    0.0153   -0.0064 C.3       1 <0>        -0.0534
      3 C3         -1.4129   -0.5166    0.0093 C.2       1 <0>         0.0922
      4 C4         -2.1717   -0.8035    1.1233 C.2       1 <0>        -0.0898
      5 N1         -3.3699   -1.2553    0.7107 N.2       1 <0>        -0.1983
      6 N2         -3.4058   -1.2680   -0.5759 N.2       1 <0>        -0.1057
      7 N3         -2.1782   -0.7983   -1.0628 N.pl3     1 <0>        -0.3642
      8 C5         -1.7986   -0.6460   -2.4695 C.3       1 <0>         0.1127
      9 C6         -1.1670   -1.9232   -2.9605 C.2       1 <0>         0.4897
     10 O1         -1.0459   -2.8676   -2.2093 O.2       1 <0>        -0.4884
     11 N4         -0.7368   -2.0159   -4.2344 N.am      1 <0>        -0.6661
     12 C7         -0.0670   -3.1604   -4.6619 C.ar      1 <0>         0.1257
     13 C8         -0.4326   -4.4065   -4.1608 C.ar      1 <0>        -0.1325
     14 C9          0.2241   -5.5352   -4.5791 C.ar      1 <0>        -0.0688
     15 C10         1.2626   -5.4332   -5.5113 C.ar      1 <0>        -0.1448
     16 C11         1.6267   -4.1788   -6.0130 C.ar      1 <0>        -0.0717
     17 C12         0.9620   -3.0553   -5.5933 C.ar      1 <0>        -0.1589
     18 C13         1.9706   -6.6425   -5.9628 C.2       1 <0>         0.5213
     19 O2          1.6512   -7.7384   -5.5228 O.co2     1 <0>        -0.6884
     20 O3          2.8783   -6.5515   -6.7779 O.co2     1 <0>        -0.6928
     21 C14        -1.7449   -0.6439    2.5223 C.2       1 <0>         0.5640
     22 O4         -0.6249   -0.2220    2.7758 O.co2     1 <0>        -0.6819
     23 O5         -2.5101   -0.9331    3.4321 O.co2     1 <0>        -0.6741
     24 H1          0.9849    1.9297   -0.0143 H         1 <0>         0.0600
     25 H2         -0.5667    1.8993   -0.8860 H         1 <0>         0.0390
     26 H3         -0.5455    1.8957    0.8938 H         1 <0>         0.0688
     27 H4          0.5077   -0.3354   -0.9032 H         1 <0>         0.0593
     28 H5          0.5289   -0.3390    0.8767 H         1 <0>         0.1193
     29 H6         -2.6859   -0.4277   -3.0637 H         1 <0>         0.1278
     30 H7         -1.0856    0.1727   -2.5669 H         1 <0>         0.1235
     31 H8         -0.8934   -1.2858   -4.8535 H         1 <0>         0.4063
     32 H9         -1.2342   -4.4844   -3.4414 H         1 <0>         0.1308
     33 H10        -0.0596   -6.5016   -4.1894 H         1 <0>         0.1287
     34 H11         2.4280   -4.0959   -6.7324 H         1 <0>         0.1288
     35 H12         1.2397   -2.0871   -5.9832 H         1 <0>         0.1167
@<TRIPOS>BOND
     1    1    2 1
     2    1   24 1
     3    1   25 1
     4    1   26 1
     5    2    3 1
     6    2   27 1
     7    2   28 1
     8    3    7 1
     9    3    4 2
    10    4    5 1
    11    4   21 1
    12    5    6 2
    13    6    7 1
    14    7    8 1
    15    8    9 1
    16    8   29 1
    17    8   30 1
    18    9   10 2
    19    9   11 am
    20   11   12 1
    21   11   31 1
    22   12   17 ar
    23   12   13 ar
    24   13   14 ar
    25   13   32 1
    26   14   15 ar
    27   14   33 1
    28   15   16 ar
    29   15   18 1
    30   16   17 ar
    31   16   34 1
    32   17   35 1
    33   18   19 2
    34   18   20 1
    35   21   22 2
    36   21   23 1
@<TRIPOS>MOLECULE
ZINC09575665
   32    33     0     0     0
SMALL
USER_CHARGES
6-(carboxymethoxy)-3-propyl-benzofuran-2-carboxylic acid
@<TRIPOS>ATOM
      1 C1         -3.8294    6.8939   -1.3695 C.3       1 <0>        -0.1447
      2 C2         -3.2989    5.4588   -1.3814 C.3       1 <0>        -0.1125
      3 C3         -3.1081    4.9737    0.0570 C.3       1 <0>        -0.0426
      4 C4         -2.5856    3.5602    0.0453 C.2       1 <0>        -0.1465
      5 C5         -1.2245    3.1633    0.0302 C.ar      1 <0>        -0.1635
      6 C6         -0.0128    3.8641    0.0224 C.ar      1 <0>        -0.0341
      7 C7          1.1671    3.1798    0.0075 C.ar      1 <0>        -0.2230
      8 C8          1.1750    1.7859    0.0004 C.ar      1 <0>         0.1550
      9 C9         -0.0126    1.0758    0.0080 C.ar      1 <0>        -0.1589
     10 C10        -1.2230    1.7555    0.0174 C.ar      1 <0>         0.0815
     11 O1         -2.5084    1.3488    0.0328 O.3       1 <0>        -0.1647
     12 C11        -3.3287    2.4230    0.0463 C.2       1 <0>         0.0023
     13 C12        -4.7942    2.3691    0.0600 C.2       1 <0>         0.5286
     14 O2         -5.4403    3.3992    0.0716 O.co2     1 <0>        -0.6005
     15 O3          2.3581    1.1192   -0.0135 O.3       1 <0>        -0.2861
     16 C13         3.5484    1.9100   -0.0207 C.3       1 <0>         0.0200
     17 C14         4.7530    1.0046   -0.0360 C.2       1 <0>         0.4705
     18 O4          4.6072   -0.1948   -0.0403 O.co2     1 <0>        -0.6139
     19 H1         -3.1156    7.5408   -0.8595 H         1 <0>         0.0464
     20 H2         -3.9653    7.2395   -2.3943 H         1 <0>         0.0457
     21 H3         -4.7851    6.9236   -0.8462 H         1 <0>         0.0558
     22 H4         -2.3432    5.4291   -1.9047 H         1 <0>         0.0513
     23 H5         -4.0126    4.8118   -1.8914 H         1 <0>         0.0658
     24 H6         -4.0638    5.0034    0.5803 H         1 <0>         0.0933
     25 H7         -2.3943    5.6206    0.5670 H         1 <0>         0.0545
     26 H8         -0.0122    4.9441    0.0285 H         1 <0>         0.1222
     27 H9          2.1014    3.7216    0.0015 H         1 <0>         0.1308
     28 H10         0.0021   -0.0041    0.0020 H         1 <0>         0.1354
     29 H11         3.5585    2.5432   -0.9078 H         1 <0>         0.0660
     30 H12         3.5748    2.5349    0.8720 H         1 <0>         0.0660
     31 O5         -5.4253    1.1771    0.0597 O.co2     1 <0>        -0.7382
     32 O6          5.9878    1.5306   -0.0448 O.co2     1 <0>        -0.7619
@<TRIPOS>BOND
     1    1    2 1
     2    1   19 1
     3    1   20 1
     4    1   21 1
     5    2    3 1
     6    2   22 1
     7    2   23 1
     8    3    4 1
     9    3   24 1
    10    3   25 1
    11    4   12 2
    12    4    5 1
    13    5   10 ar
    14    5    6 ar
    15    6    7 ar
    16    6   26 1
    17    7    8 ar
    18    7   27 1
    19    8    9 ar
    20    8   15 1
    21    9   10 ar
    22    9   28 1
    23   10   11 1
    24   11   12 1
    25   12   13 1
    26   13   14 2
    27   13   31 1
    28   15   16 1
    29   16   17 1
    30   16   29 1
    31   16   30 1
    32   17   18 2
    33   17   32 1
@<TRIPOS>MOLECULE
ZINC05828655
   26    25     0     0     0
SMALL
USER_CHARGES
2-[dithiocarboxy-[2-(dithiocarboxyamino)ethyl]amino]ethylcarbamodithioic acid
@<TRIPOS>ATOM
      1 C1          6.9206    4.1141    1.5466 C.3       1 <0>         0.0988
      2 C2          6.2621    5.4049    1.0555 C.3       1 <0>         0.1027
      3 N1          5.4514    5.1188   -0.1307 N.pl3     1 <0>        -0.5424
      4 C3          4.0121    4.8817    0.0055 C.3       1 <0>         0.0962
      5 C4          3.7494    3.3772    0.0957 C.3       1 <0>         0.1035
      6 N2          2.3101    3.1401    0.2319 N.pl3     1 <0>        -0.6622
      7 C5          1.8409    1.8804    0.3292 C.2       1 <0>         0.5134
      8 S1          2.9268    0.5573    0.2936 S.2       1 <0>        -0.7058
      9 S2          0.1098    1.5952    0.4930 S.3       1 <0>        -0.8387
     10 C6          6.0296    5.0738   -1.3473 C.2       1 <0>         0.5015
     11 S3          5.0637    4.8804   -2.7475 S.2       1 <0>        -0.7254
     12 S4          7.7796    5.2139   -1.4967 S.3       1 <0>        -0.7724
     13 N3          7.7314    4.4001    2.7328 N.pl3     1 <0>        -0.6612
     14 C7          8.4087    3.4066    3.3416 C.2       1 <0>         0.5144
     15 S5          8.3218    1.8105    2.7288 S.2       1 <0>        -0.7060
     16 S6          9.3839    3.7507    4.7683 S.3       1 <0>        -0.8420
     17 H1          6.1425    3.3800    1.8026 H         1 <0>         0.0749
     18 H2          7.5633    3.7054    0.7530 H         1 <0>         0.1063
     19 H3          5.6193    5.8135    1.8491 H         1 <0>         0.0715
     20 H4          7.0402    6.1391    0.7995 H         1 <0>         0.1001
     21 H5          3.6442    5.3735    0.9181 H         1 <0>         0.0727
     22 H6          3.4882    5.2936   -0.8696 H         1 <0>         0.1083
     23 H7          4.1173    2.8854   -0.8169 H         1 <0>         0.0949
     24 H8          4.2733    2.9653    0.9708 H         1 <0>         0.0771
     25 H9          1.6124    3.9902    0.2547 H         1 <0>         0.4107
     26 H10         7.7874    5.4257    3.1265 H         1 <0>         0.4091
@<TRIPOS>BOND
     1    1    2 1
     2    1   13 1
     3    1   17 1
     4    1   18 1
     5    2    3 1
     6    2   19 1
     7    2   20 1
     8    3    4 1
     9    3   10 1
    10    4    5 1
    11    4   21 1
    12    4   22 1
    13    5    6 1
    14    5   23 1
    15    5   24 1
    16    6    7 1
    17    6   25 1
    18    7    8 2
    19    7    9 1
    20   10   11 2
    21   10   12 1
    22   13   14 1
    23   13   26 1
    24   14   15 2
    25   14   16 1
@<TRIPOS>MOLECULE
ZINC02472823
   36    36     0     0     0
SMALL
USER_CHARGES

@<TRIPOS>ATOM
      1 C1         -1.5185    1.3981    0.2377 C.3       1 <0>        -0.1091
      2 C2         -1.3708   -0.0992    0.1517 C.2       1 <0>        -0.1663
      3 C3         -0.8814   -0.7684    1.1660 C.2       1 <0>        -0.1310
      4 C4         -0.5918   -0.0622    2.4654 C.3       1 <0>        -0.0636
      5 C5         -1.3936   -0.6974    3.5720 C.2       1 <0>        -0.2113
      6 C6         -0.7947   -1.1081    4.6623 C.2       1 <0>        -0.0719
      7 C7          0.6576   -0.7741    4.9223 C.3       1 <0>        -0.0921
      8 C8          1.4021   -2.0696    5.2618 C.3       1 <0>        -0.0907
      9 C9          0.6984   -2.7702    6.4253 C.3       1 <0>        -0.1315
     10 H1          0.6398   -2.0906    7.2754 H         1 <0>         0.0571
     11 C10        -0.7136   -3.1818    6.0051 C.3       1 <0>        -0.1159
     12 H2         -0.6596   -3.8114    5.1170 H         1 <0>         0.0538
     13 C11        -1.5394   -1.9232    5.6963 C.3       1 <0>        -0.0695
     14 C12        -1.3680   -3.9482    7.1256 C.2       1 <0>         0.5192
     15 O1         -1.5516   -3.4121    8.2051 O.co2     1 <0>        -0.7269
     16 O2         -1.7139   -5.1045    6.9525 O.co2     1 <0>        -0.6942
     17 C13         1.4803   -3.9972    6.8179 C.2       1 <0>         0.4963
     18 O3          2.5533   -3.8807    7.3850 O.co2     1 <0>        -0.7335
     19 O4          1.0399   -5.1064    6.5683 O.co2     1 <0>        -0.6688
     20 C14        -1.7860   -0.8267   -1.1011 C.3       1 <0>        -0.1097
     21 H3         -0.5567    1.8441    0.4910 H         1 <0>         0.0613
     22 H4         -1.8568    1.7855   -0.7233 H         1 <0>         0.0515
     23 H5         -2.2487    1.6475    1.0075 H         1 <0>         0.0631
     24 H6         -0.6856   -1.8263    1.0711 H         1 <0>         0.1078
     25 H7          0.4709   -0.1434    2.6940 H         1 <0>         0.0817
     26 H8         -0.8649    0.9893    2.3762 H         1 <0>         0.0652
     27 H9         -2.4621   -0.8139    3.4663 H         1 <0>         0.1008
     28 H10         1.0948   -0.3233    4.0314 H         1 <0>         0.0624
     29 H11         0.7294   -0.0803    5.7599 H         1 <0>         0.0683
     30 H12         1.4060   -2.7255    4.3913 H         1 <0>         0.0484
     31 H13         2.4282   -1.8356    5.5455 H         1 <0>         0.0554
     32 H14        -1.6673   -1.3339    6.6043 H         1 <0>         0.0693
     33 H15        -2.5143   -2.2110    5.3029 H         1 <0>         0.0498
     34 H16        -2.1658   -0.1094   -1.8287 H         1 <0>         0.0538
     35 H17        -0.9257   -1.3484   -1.5203 H         1 <0>         0.0591
     36 H18        -2.5667   -1.5482   -0.8604 H         1 <0>         0.0616
@<TRIPOS>BOND
     1    1    2 1
     2    1   21 1
     3    1   22 1
     4    1   23 1
     5    2    3 2
     6    2   20 1
     7    3    4 1
     8    3   24 1
     9    4    5 1
    10    4   25 1
    11    4   26 1
    12    5    6 2
    13    5   27 1
    14    6   13 1
    15    6    7 1
    16    7    8 1
    17    7   28 1
    18    7   29 1
    19    8    9 1
    20    8   30 1
    21    8   31 1
    22    9   10 1
    23    9   11 1
    24    9   17 1
    25   11   12 1
    26   11   13 1
    27   11   14 1
    28   13   32 1
    29   13   33 1
    30   14   15 2
    31   14   16 1
    32   17   18 2
    33   17   19 1
    34   20   34 1
    35   20   35 1
    36   20   36 1
@<TRIPOS>MOLECULE
ZINC42694996
   30    30     0     0     0
SMALL
USER_CHARGES

@<TRIPOS>ATOM
      1 C1          0.5561    1.6610   -0.5184 C.3       1 <0>        -0.1207
      2 C2          0.1901    0.2007   -0.2454 C.3       1 <0>        -0.1742
      3 H1         -0.8933    0.0856   -0.2770 H         1 <0>         0.0665
      4 C3          0.8292   -0.6929   -1.3102 C.3       1 <0>         0.1432
      5 N1          0.2471   -0.3856   -2.6190 N.am      1 <0>        -0.6091
      6 C4          0.8546    0.6423   -3.4679 C.3       1 <0>         0.0789
      7 C5         -0.8473   -1.0487   -3.0422 C.2       1 <0>         0.5609
      8 O1         -1.4083   -1.8318   -2.3004 O.2       1 <0>        -0.5227
      9 C6         -1.3647   -0.8242   -4.4061 C.ar      1 <0>        -0.0995
     10 C7         -0.4826   -0.7552   -5.4882 C.ar      1 <0>        -0.2173
     11 C8         -0.9695   -0.5457   -6.7619 C.ar      1 <0>         0.1007
     12 C9         -2.3343   -0.4026   -6.9730 C.ar      1 <0>        -0.0732
     13 C10        -3.2177   -0.4697   -5.9040 C.ar      1 <0>         0.2408
     14 C11        -2.7390   -0.6856   -4.6208 C.ar      1 <0>         0.0195
     15 F1         -3.5978   -0.7564   -3.5803 F         1 <0>        -0.1300
     16 O2         -4.5537   -0.3283   -6.1164 O.3       1 <0>        -0.6821
     17 F2         -2.8043   -0.1968   -8.2228 F         1 <0>        -0.1448
     18 F3         -0.1158   -0.4792   -7.8069 F         1 <0>        -0.1488
     19 C12         0.6982   -0.1983    1.1162 C.2       1 <0>         0.5023
     20 O3          0.0153   -0.9040    1.8389 O.co2     1 <0>        -0.6990
     21 O4          1.7920    0.1845    1.4950 O.co2     1 <0>        -0.7040
     22 H2          1.6395    1.7761   -0.4868 H         1 <0>         0.0540
     23 H3          0.1886    1.9497   -1.5032 H         1 <0>         0.0398
     24 H4          0.1007    2.2976    0.2402 H         1 <0>         0.0396
     25 H5          1.9038   -0.5121   -1.3390 H         1 <0>         0.0729
     26 H6          0.6431   -1.7388   -1.0663 H         1 <0>         0.0762
     27 H7          1.5369    0.1721   -4.1761 H         1 <0>         0.0517
     28 H8          0.0732    1.1718   -4.0129 H         1 <0>         0.0712
     29 H9          1.4058    1.3478   -2.8461 H         1 <0>         0.0727
     30 H10         0.5796   -0.8655   -5.3272 H         1 <0>         0.1344
@<TRIPOS>BOND
     1    1    2 1
     2    1   22 1
     3    1   23 1
     4    1   24 1
     5    2    3 1
     6    2    4 1
     7    2   19 1
     8    4    5 1
     9    4   25 1
    10    4   26 1
    11    5    6 1
    12    5    7 am
    13    6   27 1
    14    6   28 1
    15    6   29 1
    16    7    8 2
    17    7    9 1
    18    9   14 ar
    19    9   10 ar
    20   10   11 ar
    21   10   30 1
    22   11   12 ar
    23   11   18 1
    24   12   13 ar
    25   12   17 1
    26   13   14 ar
    27   13   16 1
    28   14   15 1
    29   19   20 2
    30   19   21 1
@<TRIPOS>MOLECULE
ZINC20335838
   32    32     0     0     0
SMALL
USER_CHARGES

@<TRIPOS>ATOM
      1 C1         -0.0187    1.5258    0.0104 C.3       1 <0>        -0.1454
      2 C2          0.0021   -0.0041    0.0020 C.3       1 <0>        -0.1147
      3 C3          0.7182   -0.4975   -1.2568 C.3       1 <0>        -0.0639
      4 C4          0.7386   -2.0043   -1.2651 C.ar      1 <0>         0.2449
      5 C5          1.7958   -2.7030   -0.6706 C.ar      1 <0>        -0.2994
      6 C6          1.7661   -4.1118   -0.7056 C.ar      1 <0>         0.4810
      7 O1          2.7630   -4.8354   -0.1453 O.3       1 <0>        -0.6731
      8 N1          0.7447   -4.7157   -1.2964 N.ar      1 <0>        -0.5739
      9 C7         -0.2348   -4.0115   -1.8465 C.ar      1 <0>         0.3691
     10 N2         -0.2431   -2.6840   -1.8284 N.ar      1 <0>        -0.5853
     11 S1         -1.5695   -4.8635   -2.6194 S.3       1 <0>        -0.0350
     12 C8         -1.1542   -6.6162   -2.4048 C.3       1 <0>        -0.1306
     13 H1         -0.9945   -6.8249   -1.3470 H         1 <0>         0.0866
     14 C9         -2.3037   -7.4803   -2.9273 C.3       1 <0>        -0.0877
     15 C10        -3.5469   -7.2505   -2.0657 C.3       1 <0>        -0.1497
     16 C11         0.1022   -6.9326   -3.1745 C.2       1 <0>         0.5190
     17 O2          0.8060   -7.8683   -2.8345 O.co2     1 <0>        -0.6934
     18 O3          0.4148   -6.2530   -4.1372 O.co2     1 <0>        -0.6835
     19 C12         2.8783   -2.0056   -0.0442 C.1       1 <0>         0.3305
     20 N3          3.7371   -1.4523    0.4527 N.1       1 <0>        -0.5168
     21 H2          1.0039    1.9031    0.0027 H         1 <0>         0.0504
     22 H3         -0.5459    1.8868   -0.8726 H         1 <0>         0.0532
     23 H4         -0.5289    1.8773    0.9072 H         1 <0>         0.0489
     24 H5          0.5293   -0.3651    0.8851 H         1 <0>         0.0600
     25 H6         -1.0205   -0.3814    0.0098 H         1 <0>         0.0684
     26 H7          0.1910   -0.1364   -2.1398 H         1 <0>         0.0811
     27 H8          1.7408   -0.1202   -1.2645 H         1 <0>         0.0694
     28 H9         -2.5221   -7.2087   -3.9601 H         1 <0>         0.0627
     29 H10        -2.0184   -8.5313   -2.8806 H         1 <0>         0.0713
     30 H11        -4.3658   -7.8661   -2.4379 H         1 <0>         0.0443
     31 H12        -3.3285   -7.5222   -1.0329 H         1 <0>         0.0513
     32 H13        -3.8322   -6.1995   -2.1124 H         1 <0>         0.0602
@<TRIPOS>BOND
     1    1    2 1
     2    1   21 1
     3    1   22 1
     4    1   23 1
     5    2    3 1
     6    2   24 1
     7    2   25 1
     8    3    4 1
     9    3   26 1
    10    3   27 1
    11    4   10 ar
    12    4    5 ar
    13    5    6 ar
    14    5   19 1
    15    6    7 1
    16    6    8 ar
    17    8    9 ar
    18    9   10 ar
    19    9   11 1
    20   11   12 1
    21   12   13 1
    22   12   14 1
    23   12   16 1
    24   14   15 1
    25   14   28 1
    26   14   29 1
    27   15   30 1
    28   15   31 1
    29   15   32 1
    30   16   17 2
    31   16   18 1
    32   19   20 3
@<TRIPOS>MOLECULE
ZINC03999429
   30    32     0     0     0
SMALL
USER_CHARGES
BLAHdicarboxylic acid
@<TRIPOS>ATOM
      1 C1          1.1588    2.1114    0.0372 C.ar      1 <0>        -0.2037
      2 C2         -0.0167    1.3830    0.0096 C.ar      1 <0>        -0.0882
      3 C3          0.0020   -0.0033   -0.0332 C.ar      1 <0>        -0.1302
      4 C4          1.2168   -0.6674   -0.0476 C.ar      1 <0>         0.2315
      5 C5          2.4160    0.0717   -0.0224 C.ar      1 <0>        -0.1866
      6 C6          2.3755    1.4663    0.0209 C.ar      1 <0>        -0.0509
      7 C7          3.7124   -0.6272   -0.0421 C.2       1 <0>         0.5035
      8 O1          3.7508   -1.8388    0.0425 O.co2     1 <0>        -0.6283
      9 N1          1.3052   -2.0497   -0.0844 N.pl3     1 <0>        -0.6124
     10 C8          0.1289   -2.6653   -0.6995 C.3       1 <0>         0.0361
     11 H1          0.2302   -3.7502   -0.6719 H         1 <0>         0.0777
     12 C9         -1.1254   -2.2499    0.0728 C.3       1 <0>        -0.0755
     13 H2         -1.1115   -2.5852    1.1099 H         1 <0>         0.0809
     14 C10        -1.3140   -0.7238   -0.0652 C.3       1 <0>        -0.0039
     15 H3         -1.9596   -0.3549    0.7317 H         1 <0>         0.0688
     16 C11        -1.9805   -0.5549   -1.4112 C.2       1 <0>        -0.1736
     17 C12        -2.5566   -1.6712   -1.7810 C.2       1 <0>        -0.1099
     18 C13        -2.3630   -2.7441   -0.7278 C.3       1 <0>        -0.0834
     19 C14         0.0125   -2.2076   -2.1306 C.2       1 <0>         0.4535
     20 O2          0.5779   -1.2026   -2.4914 O.co2     1 <0>        -0.6114
     21 H4          1.1224    3.1903    0.0717 H         1 <0>         0.0998
     22 H5         -0.9638    1.9019    0.0171 H         1 <0>         0.0992
     23 H6          3.2928    2.0361    0.0411 H         1 <0>         0.1165
     24 H7          2.1517   -2.3457   -0.5468 H         1 <0>         0.3856
     25 H8         -1.9815    0.3586   -1.9874 H         1 <0>         0.1079
     26 H9         -3.0950   -1.8083   -2.7072 H         1 <0>         0.1105
     27 H10        -2.1580   -3.7075   -1.1948 H         1 <0>         0.0783
     28 H11        -3.2377   -2.8087   -0.0807 H         1 <0>         0.0543
     29 O3          4.8560    0.0771   -0.1540 O.co2     1 <0>        -0.7721
     30 O4         -0.7194   -2.9165   -3.0044 O.co2     1 <0>        -0.7742
@<TRIPOS>BOND
     1    1    6 ar
     2    1    2 ar
     3    1   21 1
     4    2    3 ar
     5    2   22 1
     6    3   14 1
     7    3    4 ar
     8    4    5 ar
     9    4    9 1
    10    5    6 ar
    11    5    7 1
    12    6   23 1
    13    7    8 2
    14    7   29 1
    15    9   10 1
    16    9   24 1
    17   10   11 1
    18   10   12 1
    19   10   19 1
    20   12   13 1
    21   12   18 1
    22   12   14 1
    23   14   15 1
    24   14   16 1
    25   16   17 2
    26   16   25 1
    27   17   18 1
    28   17   26 1
    29   18   27 1
    30   18   28 1
    31   19   20 2
    32   19   30 1
@<TRIPOS>MOLECULE
ZINC00895230
   18    17     0     0     0
SMALL
USER_CHARGES
2-ureidobutanedioic acid
@<TRIPOS>ATOM
      1 C1         -0.0127    1.0858    0.0080 C.3       1 <0>        -0.1494
      2 C2         -0.7288    1.5792    1.2668 C.3       1 <0>         0.1407
      3 H1         -1.7755    1.2768    1.2315 H         1 <0>         0.0862
      4 C3         -0.0738    0.9805    2.4848 C.2       1 <0>         0.4619
      5 O1          0.4134    1.7002    3.3241 O.co2     1 <0>        -0.6436
      6 N1         -0.6447    3.0402    1.3356 N.am      1 <0>        -0.6893
      7 C4         -1.5740    3.7373    2.0189 C.2       1 <0>         0.7144
      8 O2         -2.4822    3.1537    2.5782 O.2       1 <0>        -0.6120
      9 N2         -1.4966    5.0814    2.0821 N.am      1 <0>        -0.8794
     10 C5         -0.7416    1.5850   -1.2129 C.2       1 <0>         0.4629
     11 O3         -1.7322    2.2656   -1.0889 O.co2     1 <0>        -0.6325
     12 H2          0.0021   -0.0041    0.0020 H         1 <0>         0.0862
     13 H3          1.0099    1.4631    0.0003 H         1 <0>         0.0586
     14 H4          0.0799    3.5058    0.8893 H         1 <0>         0.3825
     15 H5         -0.7720    5.5470    1.6359 H         1 <0>         0.3869
     16 H6         -2.1654    5.5831    2.5739 H         1 <0>         0.3996
     17 O4         -0.0315   -0.3525    2.6371 O.co2     1 <0>        -0.7797
     18 O5         -0.2903    1.2736   -2.4381 O.co2     1 <0>        -0.7939
@<TRIPOS>BOND
     1    1    2 1
     2    1   10 1
     3    1   12 1
     4    1   13 1
     5    2    3 1
     6    2    4 1
     7    2    6 1
     8    4    5 2
     9    4   17 1
    10    6    7 am
    11    6   14 1
    12    7    8 2
    13    7    9 am
    14    9   15 1
    15    9   16 1
    16   10   11 2
    17   10   18 1
@<TRIPOS>MOLECULE
ZINC37792742
   35    35     0     0     0
SMALL
USER_CHARGES

@<TRIPOS>ATOM
      1 C1         -0.1810    1.6007   -0.3727 C.3       1 <0>        -0.1142
      2 C2          1.2494    2.1412   -0.3195 C.3       1 <0>        -0.1182
      3 C3          2.0637    1.5429   -1.4683 C.3       1 <0>        -0.1228
      4 C4          2.0892    0.0188   -1.3358 C.3       1 <0>        -0.0042
      5 C5          0.6588   -0.5217   -1.3890 C.3       1 <0>        -0.1173
      6 C6         -0.1555    0.0766   -0.2401 C.3       1 <0>        -0.1181
      7 C7          2.7306   -0.3664   -0.0012 C.3       1 <0>        -0.1406
      8 C8          4.1621    0.1041    0.0225 C.2       1 <0>         0.5103
      9 O1          4.5915    0.7856   -0.8842 O.2       1 <0>        -0.5613
     10 N1          4.9652   -0.2325    1.0512 N.am      1 <0>        -0.7089
     11 C9          6.3567    0.2249    1.0742 C.3       1 <0>         0.0546
     12 C10         7.0323   -0.2841    2.3215 C.2       1 <0>         0.4918
     13 O2          6.4090   -0.9657    3.1174 O.co2     1 <0>        -0.6921
     14 O3          8.2020   -0.0142    2.5346 O.co2     1 <0>        -0.7006
     15 C11         2.9035   -0.5795   -2.4846 C.3       1 <0>        -0.1869
     16 C12         2.8843   -2.0830   -2.3841 C.2       1 <0>         0.4947
     17 O4          2.3727   -2.6230   -1.4181 O.co2     1 <0>        -0.6910
     18 O5          3.3804   -2.7595   -3.2689 O.co2     1 <0>        -0.7153
     19 H1         -0.7611    2.0269    0.4458 H         1 <0>         0.0459
     20 H2         -0.6380    1.8751   -1.3234 H         1 <0>         0.0516
     21 H3          1.2312    3.2269   -0.4139 H         1 <0>         0.0462
     22 H4          1.7064    1.8667    0.6313 H         1 <0>         0.0595
     23 H5          1.6067    1.8173   -2.4190 H         1 <0>         0.0433
     24 H6          3.0827    1.9279   -1.4304 H         1 <0>         0.0876
     25 H7          0.2018   -0.2472   -2.3397 H         1 <0>         0.0395
     26 H8          0.6769   -1.6074   -1.2945 H         1 <0>         0.1021
     27 H9          0.3015   -0.1978    0.7106 H         1 <0>         0.0617
     28 H10        -1.1745   -0.3084   -0.2780 H         1 <0>         0.0470
     29 H11         2.1806    0.1021    0.8149 H         1 <0>         0.0728
     30 H12         2.7022   -1.4497    0.1163 H         1 <0>         0.1292
     31 H13         4.6217   -0.7776    1.7763 H         1 <0>         0.4047
     32 H14         6.8791   -0.1563    0.1967 H         1 <0>         0.0603
     33 H15         6.3812    1.3146    1.0667 H         1 <0>         0.0579
     34 H16         2.4688   -0.2733   -3.4361 H         1 <0>         0.0432
     35 H17         3.9323   -0.2244   -2.4241 H         1 <0>         0.0875
@<TRIPOS>BOND
     1    1    6 1
     2    1    2 1
     3    1   19 1
     4    1   20 1
     5    2    3 1
     6    2   21 1
     7    2   22 1
     8    3    4 1
     9    3   23 1
    10    3   24 1
    11    4    5 1
    12    4    7 1
    13    4   15 1
    14    5    6 1
    15    5   25 1
    16    5   26 1
    17    6   27 1
    18    6   28 1
    19    7    8 1
    20    7   29 1
    21    7   30 1
    22    8    9 2
    23    8   10 am
    24   10   11 1
    25   10   31 1
    26   11   12 1
    27   11   32 1
    28   11   33 1
    29   12   13 2
    30   12   14 1
    31   15   16 1
    32   15   34 1
    33   15   35 1
    34   16   17 2
    35   16   18 1
@<TRIPOS>MOLECULE
ZINC40580494
   37    37     0     0     0
SMALL
USER_CHARGES

@<TRIPOS>ATOM
      1 C1         -0.0187    1.5258    0.0104 C.3       1 <0>        -0.1607
      2 C2          0.0021   -0.0041    0.0020 C.3       1 <0>         0.1860
      3 H1         -1.0205   -0.3814    0.0098 H         1 <0>         0.1036
      4 C3          0.7182   -0.4975   -1.2568 C.3       1 <0>        -0.1559
      5 C4          1.4288    0.5466   -2.1204 C.3       1 <0>        -0.1873
      6 C5          0.1281   -0.0937   -2.6094 C.3       1 <0>        -0.1761
      7 N1          0.7106   -0.4894    1.1889 N.am      1 <0>        -0.6335
      8 C6          2.1104   -0.1176    1.4094 C.3       1 <0>         0.0855
      9 C7          0.0747   -1.2778    2.0779 C.2       1 <0>         0.7116
     10 O1         -1.0871   -1.5863    1.8950 O.2       1 <0>        -0.6015
     11 N2          0.7266   -1.7243    3.1698 N.am      1 <0>        -0.6996
     12 C8          0.0353   -2.5813    4.1362 C.3       1 <0>         0.0901
     13 H2         -0.6617   -3.2335    3.6100 H         1 <0>         0.0747
     14 C9          1.0607   -3.4319    4.8885 C.3       1 <0>        -0.0798
     15 C10         1.7425   -4.3917    3.9114 C.3       1 <0>        -0.1757
     16 C11         2.7525   -5.2294    4.6524 C.2       1 <0>         0.4906
     17 O2          2.9122   -5.0733    5.8509 O.co2     1 <0>        -0.6971
     18 O3          3.4099   -6.0634    4.0533 O.co2     1 <0>        -0.7214
     19 C12        -0.7220   -1.7235    5.1168 C.2       1 <0>         0.4945
     20 O4         -0.6876   -0.5088    5.0176 O.co2     1 <0>        -0.6982
     21 O5         -1.3692   -2.2441    6.0093 O.co2     1 <0>        -0.7037
     22 H3          1.0039    1.9031    0.0027 H         1 <0>         0.0577
     23 H4         -0.5459    1.8868   -0.8726 H         1 <0>         0.0589
     24 H5         -0.5289    1.8773    0.9072 H         1 <0>         0.0624
     25 H6          1.1752   -1.4842   -1.1814 H         1 <0>         0.1063
     26 H7          1.3860    1.5850   -1.7918 H         1 <0>         0.0997
     27 H8          2.3536    0.2470   -2.6134 H         1 <0>         0.0876
     28 H9          0.1972   -0.8146   -3.4240 H         1 <0>         0.0901
     29 H10        -0.7703    0.5234   -2.6025 H         1 <0>         0.0933
     30 H11         2.1545    0.8067    1.9853 H         1 <0>         0.0484
     31 H12         2.6152   -0.9124    1.9587 H         1 <0>         0.0657
     32 H13         2.6031    0.0293    0.4482 H         1 <0>         0.0653
     33 H14         1.6534   -1.4782    3.3158 H         1 <0>         0.3858
     34 H15         1.8095   -2.7820    5.3415 H         1 <0>         0.0536
     35 H16         0.5568   -4.0038    5.6677 H         1 <0>         0.0785
     36 H17         0.9937   -5.0415    3.4584 H         1 <0>         0.0516
     37 H18         2.2464   -3.8197    3.1322 H         1 <0>         0.0490
@<TRIPOS>BOND
     1    1    2 1
     2    1   22 1
     3    1   23 1
     4    1   24 1
     5    2    3 1
     6    2    4 1
     7    2    7 1
     8    4    6 1
     9    4    5 1
    10    4   25 1
    11    5    6 1
    12    5   26 1
    13    5   27 1
    14    6   28 1
    15    6   29 1
    16    7    8 1
    17    7    9 am
    18    8   30 1
    19    8   31 1
    20    8   32 1
    21    9   10 2
    22    9   11 am
    23   11   12 1
    24   11   33 1
    25   12   13 1
    26   12   14 1
    27   12   19 1
    28   14   15 1
    29   14   34 1
    30   14   35 1
    31   15   16 1
    32   15   36 1
    33   15   37 1
    34   16   17 2
    35   16   18 1
    36   19   20 2
    37   19   21 1
@<TRIPOS>MOLECULE
ZINC50603868
   37    37     0     0     0
SMALL
USER_CHARGES

@<TRIPOS>ATOM
      1 C1         -0.0188    1.5335    0.0105 C.3       1 <0>        -0.1223
      2 C2          1.4526    2.0379   -0.0009 C.3       1 <0>        -0.5742
      3 S1          2.2278    0.8424    1.1674 S.o2      1 <0>         2.3671
      4 O1          2.1984    1.3913    2.4777 O.2       1 <0>        -0.9403
      5 O2          3.4629    0.3986    0.6227 O.2       1 <0>        -0.9452
      6 C3          1.0012   -0.5241    1.0635 C.3       1 <0>        -0.5730
      7 C4          0.0021   -0.0041    0.0020 C.3       1 <0>        -0.1051
      8 H1          0.3055   -0.3564   -0.9838 H         1 <0>         0.1020
      9 C5         -1.3980   -0.5328    0.3202 C.3       1 <0>         0.1543
     10 N1         -1.4087   -1.9925    0.1956 N.am      1 <0>        -0.7575
     11 C6         -2.5434   -2.6806    0.4309 C.2       1 <0>         0.7023
     12 O3         -3.5582   -2.0899    0.7465 O.2       1 <0>        -0.6000
     13 N2         -2.5533   -4.0234    0.3163 N.am      1 <0>        -0.7001
     14 C7         -3.7867   -4.7713    0.5720 C.3       1 <0>         0.0926
     15 H2         -4.6427   -4.1869    0.2345 H         1 <0>         0.0753
     16 C8         -3.7446   -6.0992   -0.1869 C.3       1 <0>        -0.0824
     17 C9         -3.7415   -5.8262   -1.6924 C.3       1 <0>        -0.1751
     18 C10        -3.7000   -7.1341   -2.4399 C.2       1 <0>         0.4903
     19 O4         -3.6753   -8.1869   -1.8255 O.co2     1 <0>        -0.6974
     20 O5         -3.6912   -7.1394   -3.6591 O.co2     1 <0>        -0.7206
     21 C11        -3.9137   -5.0409    2.0493 C.2       1 <0>         0.4967
     22 O6         -5.0171   -5.1334    2.5595 O.co2     1 <0>        -0.7033
     23 O7         -2.9129   -5.1665    2.7342 O.co2     1 <0>        -0.7008
     24 H3         -0.5232    1.8899    0.9086 H         1 <0>         0.0934
     25 H4         -0.5402    1.8994   -0.8740 H         1 <0>         0.1035
     26 H5          1.8896    1.9563   -0.9961 H         1 <0>         0.1372
     27 H6          1.5223    3.0584    0.3755 H         1 <0>         0.1381
     28 H7          1.4768   -1.4457    0.7279 H         1 <0>         0.1449
     29 H8          0.5045   -0.6713    2.0225 H         1 <0>         0.1473
     30 H9         -1.6694   -0.2530    1.3381 H         1 <0>         0.0687
     31 H10        -2.1160   -0.1033   -0.3784 H         1 <0>         0.0696
     32 H11        -0.5991   -2.4637   -0.0561 H         1 <0>         0.3916
     33 H12        -1.7437   -4.4946    0.0645 H         1 <0>         0.3883
     34 H13        -2.8412   -6.6448    0.0853 H         1 <0>         0.0597
     35 H14        -4.6204   -6.6940    0.0727 H         1 <0>         0.0721
     36 H15        -4.6450   -5.2806   -1.9646 H         1 <0>         0.0520
     37 H16        -2.8657   -5.2315   -1.9520 H         1 <0>         0.0506
@<TRIPOS>BOND
     1    1    7 1
     2    1    2 1
     3    1   24 1
     4    1   25 1
     5    2    3 1
     6    2   26 1
     7    2   27 1
     8    3    4 2
     9    3    5 2
    10    3    6 1
    11    6    7 1
    12    6   28 1
    13    6   29 1
    14    7    8 1
    15    7    9 1
    16    9   10 1
    17    9   30 1
    18    9   31 1
    19   10   11 am
    20   10   32 1
    21   11   12 2
    22   11   13 am
    23   13   14 1
    24   13   33 1
    25   14   15 1
    26   14   16 1
    27   14   21 1
    28   16   17 1
    29   16   34 1
    30   16   35 1
    31   17   18 1
    32   17   36 1
    33   17   37 1
    34   18   19 2
    35   18   20 1
    36   21   22 2
    37   21   23 1
@<TRIPOS>MOLECULE
ZINC16082802
   14    14     0     0     0
SMALL
USER_CHARGES

@<TRIPOS>ATOM
      1 C1         -0.0171    1.4115    0.0098 C.2       1 <0>         0.2720
      2 N1          1.1136    2.0709    0.0025 N.2       1 <0>        -0.2819
      3 N2          2.3248    1.3635   -0.0127 N.pl3     1 <0>        -0.6152
      4 C2          2.3220   -0.0181   -0.3220 C.2       1 <0>         0.2720
      5 N3          1.1913   -0.6776   -0.3135 N.2       1 <0>        -0.2819
      6 N4          0.0021   -0.0041    0.0020 N.pl3     1 <0>        -0.6151
      7 C3          3.5328   -0.6811   -0.6385 C.2       1 <0>         0.5466
      8 O1          3.5248   -1.8776   -0.9056 O.co2     1 <0>        -0.6632
      9 O2          4.5889   -0.0586   -0.6454 O.co2     1 <0>        -0.6863
     10 C4         -1.2498    2.1086    0.0312 C.2       1 <0>         0.5467
     11 O3         -1.2608    3.3344    0.0379 O.co2     1 <0>        -0.6631
     12 O4         -2.3059    1.4861    0.0431 O.co2     1 <0>        -0.6864
     13 H1          3.1583    1.8176    0.1869 H         1 <0>         0.4278
     14 H2         -0.8015   -0.5046    0.2131 H         1 <0>         0.4279
@<TRIPOS>BOND
     1    1    6 1
     2    1    2 2
     3    1   10 1
     4    2    3 1
     5    3    4 1
     6    3   13 1
     7    4    5 2
     8    4    7 1
     9    5    6 1
    10    6   14 1
    11    7    8 2
    12    7    9 1
    13   10   11 2
    14   10   12 1
@<TRIPOS>MOLECULE
ZINC37429581
   33    33     0     0     0
SMALL
USER_CHARGES

@<TRIPOS>ATOM
      1 C1         -0.0169    1.3960    0.0097 C.ar      1 <0>        -0.0700
      2 C2          1.1570    2.0930    0.0023 C.ar      1 <0>        -0.1131
      3 C3          2.3733    1.4126   -0.0130 C.ar      1 <0>        -0.1080
      4 C4          2.3960    0.0191   -0.0207 C.ar      1 <0>        -0.1487
      5 C5          1.2258   -0.6843   -0.0133 C.ar      1 <0>        -0.0686
      6 C6          0.0021   -0.0041    0.0020 C.ar      1 <0>        -0.1357
      7 C7         -1.2606   -0.7584    0.0100 C.2       1 <0>         0.5203
      8 O1         -2.3292   -0.1625    0.0234 O.co2     1 <0>        -0.6894
      9 O2         -1.2423   -1.9819    0.0033 O.co2     1 <0>        -0.6888
     10 S1          3.8859    2.3163   -0.0232 S.3       1 <0>        -0.0565
     11 C8          5.1652    1.0305   -0.0421 C.3       1 <0>        -0.1484
     12 C9          6.5267    1.6765   -0.0521 C.2       1 <0>         0.5304
     13 O3          6.6243    2.8854   -0.0470 O.2       1 <0>        -0.5273
     14 N1          7.6358    0.9109   -0.0668 N.am      1 <0>        -0.7215
     15 C10         8.9593    1.5390   -0.0765 C.3       1 <0>         0.1174
     16 C11        10.0384    0.4544   -0.0925 C.3       1 <0>        -0.1046
     17 C12        11.4206    1.1103   -0.1026 C.3       1 <0>        -0.1803
     18 C13        12.4835    0.0420   -0.1183 C.2       1 <0>         0.4905
     19 O4         12.1649   -1.1348   -0.1212 O.co2     1 <0>        -0.6986
     20 O5         13.6619    0.3546   -0.1282 O.co2     1 <0>        -0.7079
     21 H1         -0.9590    1.9238    0.0261 H         1 <0>         0.1306
     22 H2          1.1431    3.1729    0.0078 H         1 <0>         0.1199
     23 H3          3.3402   -0.5049   -0.0329 H         1 <0>         0.1144
     24 H4          1.2441   -1.7641   -0.0197 H         1 <0>         0.1287
     25 H5          5.0659    0.4060    0.8457 H         1 <0>         0.1153
     26 H6          5.0486    0.4150   -0.9341 H         1 <0>         0.1153
     27 H7          7.5577   -0.0559   -0.0709 H         1 <0>         0.4032
     28 H8          9.0587    2.1634   -0.9644 H         1 <0>         0.0644
     29 H9          9.0760    2.1544    0.8155 H         1 <0>         0.0644
     30 H10         9.9390   -0.1701    0.7954 H         1 <0>         0.0669
     31 H11         9.9217   -0.1611   -0.9845 H         1 <0>         0.0669
     32 H12        11.5200    1.7347   -0.9905 H         1 <0>         0.0595
     33 H13        11.5373    1.7258    0.7894 H         1 <0>         0.0595
@<TRIPOS>BOND
     1    1    6 ar
     2    1    2 ar
     3    1   21 1
     4    2    3 ar
     5    2   22 1
     6    3    4 ar
     7    3   10 1
     8    4    5 ar
     9    4   23 1
    10    5    6 ar
    11    5   24 1
    12    6    7 1
    13    7    8 2
    14    7    9 1
    15   10   11 1
    16   11   12 1
    17   11   25 1
    18   11   26 1
    19   12   13 2
    20   12   14 am
    21   14   15 1
    22   14   27 1
    23   15   16 1
    24   15   28 1
    25   15   29 1
    26   16   17 1
    27   16   30 1
    28   16   31 1
    29   17   18 1
    30   17   32 1
    31   17   33 1
    32   18   19 2
    33   18   20 1
@<TRIPOS>MOLECULE
ZINC40536834
   31    31     0     0     0
SMALL
USER_CHARGES

@<TRIPOS>ATOM
      1 C1         -0.0148    1.3824    0.0485 C.ar      1 <0>        -0.1659
      2 C2          1.0825    1.9568   -0.5669 C.ar      1 <0>        -0.1024
      3 C3          2.2905    1.2850   -0.5969 C.ar      1 <0>         0.0400
      4 C4          2.4017    0.0302   -0.0073 C.ar      1 <0>         0.1970
      5 C5          1.2994   -0.5437    0.6093 C.ar      1 <0>        -0.1483
      6 C6          0.0928    0.1335    0.6362 C.ar      1 <0>         0.1151
      7 F1         -0.9811   -0.4244    1.2369 F         1 <0>        -0.1358
      8 N1          3.6242   -0.6529   -0.0366 N.am      1 <0>        -0.6837
      9 C7          3.6474   -1.9972    0.0577 C.2       1 <0>         0.6996
     10 O1          2.6056   -2.6242    0.0648 O.2       1 <0>        -0.5753
     11 N2          4.8253   -2.6464    0.1440 N.am      1 <0>        -0.6869
     12 C8          4.8505   -4.1076    0.2465 C.3       1 <0>         0.0893
     13 H1          3.9950   -4.4456    0.8313 H         1 <0>         0.0797
     14 C9          6.1443   -4.5484    0.9339 C.3       1 <0>        -0.0828
     15 C10         6.1534   -4.0412    2.3773 C.3       1 <0>        -0.1769
     16 C11         7.4278   -4.4754    3.0544 C.2       1 <0>         0.4907
     17 O2          8.2524   -5.1299    2.4394 O.co2     1 <0>        -0.6972
     18 O3          7.6342   -4.1722    4.2171 O.co2     1 <0>        -0.7192
     19 C12         4.7847   -4.7092   -1.1337 C.2       1 <0>         0.4968
     20 O4          5.2545   -4.1071   -2.0841 O.co2     1 <0>        -0.6988
     21 O5          4.2618   -5.7980   -1.2998 O.co2     1 <0>        -0.6991
     22 F2          3.3617    1.8467   -1.1986 F         1 <0>        -0.1365
     23 H2         -0.9562    1.9111    0.0745 H         1 <0>         0.1394
     24 H3          0.9956    2.9311   -1.0249 H         1 <0>         0.1437
     25 H4          1.3828   -1.5179    1.0679 H         1 <0>         0.1737
     26 H5          4.4541   -0.1585   -0.1247 H         1 <0>         0.4107
     27 H6          5.6563   -2.1462    0.1383 H         1 <0>         0.3927
     28 H7          6.2048   -5.6367    0.9308 H         1 <0>         0.0753
     29 H8          6.9992   -4.1355    0.3983 H         1 <0>         0.0614
     30 H9          6.0929   -2.9529    2.3804 H         1 <0>         0.0506
     31 H10         5.2985   -4.4542    2.9129 H         1 <0>         0.0532
@<TRIPOS>BOND
     1    1    6 ar
     2    1    2 ar
     3    1   23 1
     4    2    3 ar
     5    2   24 1
     6    3    4 ar
     7    3   22 1
     8    4    5 ar
     9    4    8 1
    10    5    6 ar
    11    5   25 1
    12    6    7 1
    13    8    9 am
    14    8   26 1
    15    9   10 2
    16    9   11 am
    17   11   12 1
    18   11   27 1
    19   12   13 1
    20   12   14 1
    21   12   19 1
    22   14   15 1
    23   14   28 1
    24   14   29 1
    25   15   16 1
    26   15   30 1
    27   15   31 1
    28   16   17 2
    29   16   18 1
    30   19   20 2
    31   19   21 1
@<TRIPOS>MOLECULE
ZINC42792284
   40    39     0     0     0
SMALL
USER_CHARGES

@<TRIPOS>ATOM
      1 C1         -0.0408    1.3219    0.5492 C.3       1 <0>        -0.1783
      2 C2         -0.0693   -0.1627    0.1806 C.3       1 <0>         0.1042
      3 N1         -1.4594   -0.6110    0.0667 N.am      1 <0>        -0.6269
      4 C3         -2.1099   -0.6542   -1.2453 C.3       1 <0>         0.1599
      5 H1         -3.1635   -0.9039   -1.1204 H         1 <0>         0.1105
      6 C4         -1.9864    0.7130   -1.9210 C.3       1 <0>        -0.1544
      7 C5         -1.4338   -1.7159   -2.1151 C.3       1 <0>         0.0523
      8 O1         -0.0898   -1.3183   -2.3936 O.3       1 <0>        -0.3816
      9 C6          0.6347   -2.2459   -3.2041 C.3       1 <0>         0.0302
     10 C7         -2.1397   -0.9837    1.1688 C.2       1 <0>         0.7046
     11 O2         -3.2934   -1.3557    1.0742 O.2       1 <0>        -0.6049
     12 N2         -1.5413   -0.9440    2.3757 N.am      1 <0>        -0.6981
     13 C8         -2.2808   -1.3491    3.5737 C.3       1 <0>         0.0910
     14 H2         -2.9563   -2.1674    3.3243 H         1 <0>         0.0737
     15 C9         -1.2957   -1.8108    4.6495 C.3       1 <0>        -0.0818
     16 C10        -0.5747   -3.0732    4.1727 C.3       1 <0>        -0.1750
     17 C11         0.3957   -3.5279    5.2323 C.2       1 <0>         0.4911
     18 O3          0.5008   -2.9004    6.2723 O.co2     1 <0>        -0.6977
     19 O4          1.0756   -4.5233    5.0494 O.co2     1 <0>        -0.7210
     20 C12        -3.0781   -0.1797    4.0913 C.2       1 <0>         0.4980
     21 O5         -4.1277   -0.3708    4.6814 O.co2     1 <0>        -0.7052
     22 O6         -2.6735    0.9576    3.9198 O.co2     1 <0>        -0.6997
     23 H3          0.9935    1.6554    0.6340 H         1 <0>         0.0563
     24 H4         -0.5461    1.8984   -0.2256 H         1 <0>         0.0552
     25 H5         -0.5494    1.4696    1.5019 H         1 <0>         0.0699
     26 H6          0.4394   -0.3104   -0.7721 H         1 <0>         0.0987
     27 H7          0.4360   -0.7393    0.9555 H         1 <0>         0.0646
     28 H8         -2.4704    0.6809   -2.8971 H         1 <0>         0.0556
     29 H9         -2.4680    1.4694   -1.3013 H         1 <0>         0.0593
     30 H10        -0.9327    0.9627   -2.0459 H         1 <0>         0.0668
     31 H11        -1.4286   -2.6692   -1.5865 H         1 <0>         0.0545
     32 H12        -1.9825   -1.8223   -3.0508 H         1 <0>         0.0527
     33 H13         0.1288   -2.3633   -4.1624 H         1 <0>         0.0347
     34 H14         1.6449   -1.8717   -3.3699 H         1 <0>         0.0811
     35 H15         0.6828   -3.2101   -2.6981 H         1 <0>         0.0398
     36 H16        -0.6209   -0.6472    2.4512 H         1 <0>         0.3885
     37 H17        -0.5652   -1.0233    4.8352 H         1 <0>         0.0587
     38 H18        -1.8380   -2.0277    5.5698 H         1 <0>         0.0714
     39 H19        -1.3051   -3.8606    3.9870 H         1 <0>         0.0516
     40 H20        -0.0324   -2.8562    3.2524 H         1 <0>         0.0500
@<TRIPOS>BOND
     1    1    2 1
     2    1   23 1
     3    1   24 1
     4    1   25 1
     5    2    3 1
     6    2   26 1
     7    2   27 1
     8    3    4 1
     9    3   10 am
    10    4    5 1
    11    4    6 1
    12    4    7 1
    13    6   28 1
    14    6   29 1
    15    6   30 1
    16    7    8 1
    17    7   31 1
    18    7   32 1
    19    8    9 1
    20    9   33 1
    21    9   34 1
    22    9   35 1
    23   10   11 2
    24   10   12 am
    25   12   13 1
    26   12   36 1
    27   13   14 1
    28   13   15 1
    29   13   20 1
    30   15   16 1
    31   15   37 1
    32   15   38 1
    33   16   17 1
    34   16   39 1
    35   16   40 1
    36   17   18 2
    37   17   19 1
    38   20   21 2
    39   20   22 1
@<TRIPOS>MOLECULE
ZINC49039855
   38    38     0     0     0
SMALL
USER_CHARGES

@<TRIPOS>ATOM
      1 C1          0.0581    1.4324   -0.0579 C.3       1 <0>         0.0323
      2 O1          0.0576    0.0034   -0.0464 O.3       1 <0>        -0.3544
      3 C2          0.6855   -0.5872   -1.1862 C.3       1 <0>         0.0410
      4 C3          0.6268   -2.1115   -1.0681 C.3       1 <0>         0.1348
      5 N1         -0.7693   -2.5521   -1.1229 N.am      1 <0>        -0.6064
      6 C4         -1.3860   -2.8734   -2.4124 C.3       1 <0>         0.0839
      7 C5         -0.5024   -2.7887   -3.6586 C.3       1 <0>        -0.1887
      8 C6         -1.5767   -1.7283   -3.4090 C.3       1 <0>        -0.1975
      9 C7         -1.4864   -2.6620    0.0130 C.2       1 <0>         0.7110
     10 O2         -1.0041   -2.3117    1.0727 O.2       1 <0>        -0.5747
     11 N2         -2.7382   -3.1601   -0.0258 N.am      1 <0>        -0.7014
     12 C8         -3.5576   -3.1774    1.1884 C.3       1 <0>         0.0944
     13 H1         -3.3386   -2.2933    1.7872 H         1 <0>         0.0729
     14 C9         -5.0386   -3.1792    0.8043 C.3       1 <0>        -0.0815
     15 C10        -5.3846   -1.8651    0.1011 C.3       1 <0>        -0.1739
     16 C11        -6.8434   -1.8669   -0.2773 C.2       1 <0>         0.4909
     17 O3         -7.5415   -2.8299   -0.0094 O.co2     1 <0>        -0.6984
     18 O4         -7.3254   -0.9053   -0.8513 O.co2     1 <0>        -0.7213
     19 C12        -3.2446   -4.4158    1.9881 C.2       1 <0>         0.4985
     20 O5         -3.3497   -4.3999    3.2027 O.co2     1 <0>        -0.7057
     21 O6         -2.8862   -5.4335    1.4205 O.co2     1 <0>        -0.7020
     22 H2          1.0857    1.7951   -0.0830 H         1 <0>         0.0304
     23 H3         -0.4747    1.7888   -0.9394 H         1 <0>         0.0334
     24 H4         -0.4361    1.8031    0.8401 H         1 <0>         0.0829
     25 H5          0.1656   -0.2726   -2.0911 H         1 <0>         0.0466
     26 H6          1.7260   -0.2664   -1.2347 H         1 <0>         0.0452
     27 H7          1.1823   -2.5614   -1.8909 H         1 <0>         0.0853
     28 H8          1.0681   -2.4198   -0.1203 H         1 <0>         0.0905
     29 H9         -2.1488   -3.6516   -2.3878 H         1 <0>         0.1261
     30 H10         0.5377   -2.4940   -3.5190 H         1 <0>         0.0957
     31 H11        -0.6838   -3.5114   -4.4542 H         1 <0>         0.0997
     32 H12        -2.4648   -1.7533   -4.0404 H         1 <0>         0.1001
     33 H13        -1.2434   -0.7360   -3.1053 H         1 <0>         0.0947
     34 H14        -3.0965   -3.5071   -0.8577 H         1 <0>         0.3850
     35 H15        -5.2388   -4.0142    0.1329 H         1 <0>         0.0579
     36 H16        -5.6469   -3.2815    1.7029 H         1 <0>         0.0706
     37 H17        -5.1844   -1.0301    0.7725 H         1 <0>         0.0510
     38 H18        -4.7763   -1.7627   -0.7975 H         1 <0>         0.0510
@<TRIPOS>BOND
     1    1    2 1
     2    1   22 1
     3    1   23 1
     4    1   24 1
     5    2    3 1
     6    3    4 1
     7    3   25 1
     8    3   26 1
     9    4    5 1
    10    4   27 1
    11    4   28 1
    12    5    6 1
    13    5    9 am
    14    6    8 1
    15    6    7 1
    16    6   29 1
    17    7    8 1
    18    7   30 1
    19    7   31 1
    20    8   32 1
    21    8   33 1
    22    9   10 2
    23    9   11 am
    24   11   12 1
    25   11   34 1
    26   12   13 1
    27   12   14 1
    28   12   19 1
    29   14   15 1
    30   14   35 1
    31   14   36 1
    32   15   16 1
    33   15   37 1
    34   15   38 1
    35   16   17 2
    36   16   18 1
    37   19   20 2
    38   19   21 1
@<TRIPOS>MOLECULE
ZINC62934741
   33    34     0     0     0
SMALL
USER_CHARGES

@<TRIPOS>ATOM
      1 C1         -0.0187    1.5258    0.0104 C.3       1 <0>        -0.1591
      2 C2          0.0021   -0.0041    0.0020 C.3       1 <0>        -0.0855
      3 C3          0.7182   -0.4975   -1.2568 C.3       1 <0>        -0.1415
      4 C4          0.8152   -2.0406   -1.2495 C.3       1 <0>        -0.1123
      5 C5          2.2322   -2.2992   -1.8206 C.3       1 <0>         0.1064
      6 N1          3.0387   -1.2021   -1.2377 N.am      1 <0>        -0.6392
      7 C6          2.1774   -0.0053   -1.2698 C.3       1 <0>         0.1547
      8 C7          4.3010   -1.2815   -0.7723 C.2       1 <0>         0.7253
      9 O1          4.8444   -0.2936   -0.3171 O.2       1 <0>        -0.6067
     10 N2          4.9610   -2.4559   -0.8113 N.am      1 <0>        -0.7340
     11 C8          6.3332   -2.5422   -0.3053 C.3       1 <0>         0.2595
     12 C9          6.8388   -3.9531   -0.4627 C.2       1 <0>         0.0370
     13 N3          6.7270   -4.9355    0.4196 N.2       1 <0>        -0.3735
     14 N4          7.2843   -5.9811   -0.0887 N.2       1 <0>        -0.1994
     15 N5          7.7402   -5.6875   -1.2566 N.2       1 <0>        -0.1991
     16 N6          7.4756   -4.4518   -1.5122 N.2       1 <0>        -0.3726
     17 C10        -0.0056   -0.0221   -2.4901 C.2       1 <0>         0.5115
     18 O2         -0.1565    1.1717   -2.6863 O.co2     1 <0>        -0.6886
     19 O3         -0.4404   -0.8314   -3.2917 O.co2     1 <0>        -0.6930
     20 H1          1.0039    1.9031    0.0027 H         1 <0>         0.0462
     21 H2         -0.5459    1.8868   -0.8726 H         1 <0>         0.0940
     22 H3         -0.5289    1.8773    0.9072 H         1 <0>         0.0286
     23 H4          0.5293   -0.3651    0.8851 H         1 <0>         0.0446
     24 H5         -1.0205   -0.3814    0.0098 H         1 <0>         0.0512
     25 H6          0.7318   -2.4278   -0.2341 H         1 <0>         0.0545
     26 H7          0.0533   -2.4783   -1.8945 H         1 <0>         0.0936
     27 H8          2.6078   -3.2686   -1.4932 H         1 <0>         0.0652
     28 H9          2.2258   -2.2355   -2.9088 H         1 <0>         0.0713
     29 H10         2.3686    0.5655   -2.1786 H         1 <0>         0.0593
     30 H11         2.3684    0.6132   -0.3928 H         1 <0>         0.0681
     31 H12         4.5275   -3.2440   -1.1744 H         1 <0>         0.3949
     32 H13         6.9718   -1.8624   -0.8693 H         1 <0>         0.0695
     33 H14         6.3498   -2.2658    0.7489 H         1 <0>         0.0691
@<TRIPOS>BOND
     1    1    2 1
     2    1   20 1
     3    1   21 1
     4    1   22 1
     5    2    3 1
     6    2   23 1
     7    2   24 1
     8    3    7 1
     9    3    4 1
    10    3   17 1
    11    4    5 1
    12    4   25 1
    13    4   26 1
    14    5    6 1
    15    5   27 1
    16    5   28 1
    17    6    7 1
    18    6    8 am
    19    7   29 1
    20    7   30 1
    21    8    9 2
    22    8   10 am
    23   10   11 1
    24   10   31 1
    25   11   12 1
    26   11   32 1
    27   11   33 1
    28   12   16 2
    29   12   13 1
    30   13   14 1
    31   14   15 2
    32   15   16 1
    33   17   18 2
    34   17   19 1
@<TRIPOS>MOLECULE
ZINC20214112
   26    26     0     0     0
SMALL
USER_CHARGES
(2S,3S)-2-[(4,5-dichloro1H-pyrrole-2-carbonyl)amino]-3-hydroxy-butanoic acid
@<TRIPOS>ATOM
      1 C1         -0.9660    3.2909   -1.1591 C.3       1 <0>        -0.1589
      2 C2          0.5222    3.6385   -1.2327 C.3       1 <0>         0.1326
      3 H1          0.6739    4.7231   -1.3359 H         1 <0>         0.0394
      4 C3          1.2350    3.0943    0.0069 C.3       1 <0>         0.0681
      5 H2          0.7752    3.4806    0.9285 H         1 <0>         0.0978
      6 C4          1.1765    1.5884   -0.0006 C.2       1 <0>         0.4731
      7 O1          2.1986    0.9442   -0.0139 O.co2     1 <0>        -0.6277
      8 O2         -0.0110    0.9628    0.0073 O.co2     1 <0>        -0.7521
      9 N1          2.6340    3.5287   -0.0041 N.am      1 <0>        -0.7056
     10 C5          3.3188    3.6252    1.1527 C.2       1 <0>         0.5927
     11 O3          2.7749    3.3513    2.2065 O.2       1 <0>        -0.5215
     12 C6          4.7183    4.0598    1.1416 C.2       1 <0>        -0.0018
     13 C7          5.5344    4.2087    2.2439 C.2       1 <0>        -0.1010
     14 C8          6.7816    4.6352    1.7782 C.2       1 <0>        -0.0997
     15 C9          6.7060    4.7468    0.4277 C.2       1 <0>         0.1027
     16 N2          5.4567    4.3997    0.0289 N.pl3     1 <0>        -0.5330
     17 H3          4.9976    4.3573   -0.9698 H         1 <0>         0.4537
     18 Cl1         7.9966    5.2517   -0.6179 Cl        1 <0>        -0.0053
     19 Cl2         8.1772    4.9699    2.7548 Cl        1 <0>        -0.0349
     20 O4          1.0909    3.0521   -2.4052 O.3       1 <0>        -0.5815
     21 H4         -1.4784    3.6822   -2.0503 H         1 <0>         0.0462
     22 H5         -1.4038    3.7424   -0.2566 H         1 <0>         0.0624
     23 H6         -1.0857    2.1982   -1.1174 H         1 <0>         0.1168
     24 H7          3.1256    3.7761   -0.9565 H         1 <0>         0.3910
     25 H8          5.2616    4.0277    3.2731 H         1 <0>         0.1637
     26 H9          2.1585    3.1942   -2.6287 H         1 <0>         0.3826
@<TRIPOS>BOND
     1    1    2 1
     2    1   21 1
     3    1   22 1
     4    1   23 1
     5    2    3 1
     6    2    4 1
     7    2   20 1
     8    4    5 1
     9    4    6 1
    10    4    9 1
    11    6    7 2
    12    6    8 1
    13    9   10 am
    14    9   24 1
    15   10   11 2
    16   10   12 1
    17   12   16 1
    18   12   13 2
    19   13   14 1
    20   13   25 1
    21   14   15 2
    22   14   19 1
    23   15   16 1
    24   15   18 1
    25   16   17 1
    26   20   26 1
@<TRIPOS>MOLECULE
ZINC37411536
   38    39     0     0     0
SMALL
USER_CHARGES

@<TRIPOS>ATOM
      1 C1         -0.0187    1.5258    0.0104 C.3       1 <0>        -0.1467
      2 C2          0.0021   -0.0041    0.0020 C.3       1 <0>        -0.0918
      3 H1          0.5124   -0.3545   -0.8951 H         1 <0>         0.0717
      4 C3         -1.4351   -0.5326    0.0092 C.3       1 <0>        -0.1081
      5 C4         -1.4078   -2.0412   -0.2716 C.3       1 <0>        -0.0362
      6 C5         -0.3767   -2.6711    0.6177 C.2       1 <0>        -0.2200
      7 C6          0.6041   -2.0269    1.3132 C.2       1 <0>        -0.1385
      8 C7          1.4488   -2.8185    2.0769 C.2       1 <0>        -0.0858
      9 C8          1.2143   -4.1811    2.0574 C.2       1 <0>        -0.2120
     10 S1         -0.1885   -4.2941    0.9625 S.3       1 <0>         0.1956
     11 C9          1.9316   -5.2527    2.7546 C.2       1 <0>         0.6065
     12 O1          2.8787   -4.9853    3.4706 O.2       1 <0>        -0.5343
     13 N1          1.5421   -6.5340    2.6028 N.am      1 <0>        -0.6766
     14 C10         2.2589   -7.6049    3.2996 C.3       1 <0>         0.0932
     15 H2          3.3192   -7.3577    3.3527 H         1 <0>         0.0934
     16 C11         2.0792   -8.9190    2.5369 C.3       1 <0>        -0.1354
     17 C12         2.7393   -8.8105    1.1866 C.2       1 <0>         0.5117
     18 O2          3.2985   -7.7832    0.8657 O.2       1 <0>        -0.5315
     19 N2          2.7084   -9.8550    0.3354 N.am      1 <0>        -0.8629
     20 C13         1.7074   -7.7539    4.6941 C.2       1 <0>         0.4922
     21 O3          0.6877   -7.1662    5.0123 O.co2     1 <0>        -0.6806
     22 O4          2.2809   -8.4621    5.5040 O.co2     1 <0>        -0.6939
     23 C14         0.7450   -0.5090    1.2393 C.3       1 <0>        -0.0501
     24 H3          1.0039    1.9031    0.0027 H         1 <0>         0.0551
     25 H4         -0.5459    1.8868   -0.8726 H         1 <0>         0.0544
     26 H5         -0.5289    1.8773    0.9072 H         1 <0>         0.0552
     27 H6         -1.8865   -0.3505    0.9845 H         1 <0>         0.0676
     28 H7         -2.0141   -0.0274   -0.7639 H         1 <0>         0.0700
     29 H8         -2.3867   -2.4712   -0.0593 H         1 <0>         0.0799
     30 H9         -1.1467   -2.2149   -1.3155 H         1 <0>         0.0803
     31 H10         2.2519   -2.3911    2.6590 H         1 <0>         0.1434
     32 H11         0.7872   -6.7471    2.0321 H         1 <0>         0.3860
     33 H12         2.5370   -9.7319    3.1008 H         1 <0>         0.1139
     34 H13         1.0161   -9.1210    2.4065 H         1 <0>         0.0941
     35 H14         2.2612  -10.6766    0.5920 H         1 <0>         0.3994
     36 H15         3.1333   -9.7851   -0.5338 H         1 <0>         0.3950
     37 H16         1.7998   -0.2444    1.1653 H         1 <0>         0.0726
     38 H17         0.3150   -0.0574    2.1333 H         1 <0>         0.0735
@<TRIPOS>BOND
     1    1    2 1
     2    1   24 1
     3    1   25 1
     4    1   26 1
     5    2    3 1
     6    2   23 1
     7    2    4 1
     8    4    5 1
     9    4   27 1
    10    4   28 1
    11    5    6 1
    12    5   29 1
    13    5   30 1
    14    6   10 1
    15    6    7 2
    16    7    8 1
    17    7   23 1
    18    8    9 2
    19    8   31 1
    20    9   10 1
    21    9   11 1
    22   11   12 2
    23   11   13 am
    24   13   14 1
    25   13   32 1
    26   14   15 1
    27   14   16 1
    28   14   20 1
    29   16   17 1
    30   16   33 1
    31   16   34 1
    32   17   18 2
    33   17   19 am
    34   19   35 1
    35   19   36 1
    36   20   21 2
    37   20   22 1
    38   23   37 1
    39   23   38 1
@<TRIPOS>MOLECULE
ZINC40559404
   30    30     0     0     0
SMALL
USER_CHARGES

@<TRIPOS>ATOM
      1 C1         -0.0292    1.5371    0.0245 C.3       1 <0>        -0.1813
      2 C2         -0.0002    0.0074    0.0088 C.3       1 <0>         0.1102
      3 H1          0.5139   -0.3370   -0.8886 H         1 <0>         0.0550
      4 C3         -1.4327   -0.5299    0.0139 C.3       1 <0>         0.0960
      5 H2         -1.9468   -0.1855    0.9112 H         1 <0>         0.0907
      6 C4         -1.4041   -2.0366   -0.0016 C.2       1 <0>         0.4978
      7 O1         -1.3848   -2.6567    1.0480 O.co2     1 <0>        -0.6785
      8 O2         -1.4003   -2.6354   -1.0636 O.co2     1 <0>        -0.6979
      9 N1         -2.1413   -0.0427   -1.1722 N.am      1 <0>        -0.6986
     10 C5         -3.4850    0.0604   -1.1595 C.2       1 <0>         0.7046
     11 O3         -4.1092   -0.2509   -0.1636 O.2       1 <0>        -0.5672
     12 N2         -4.1369    0.5086   -2.2507 N.am      1 <0>        -0.6882
     13 C6         -5.5372    0.5245   -2.2725 C.ar      1 <0>         0.1842
     14 C7         -6.2170    0.2582   -3.4537 C.ar      1 <0>        -0.1195
     15 C8         -7.5980    0.2743   -3.4739 C.ar      1 <0>        -0.1211
     16 C9         -8.3052    0.5559   -2.3173 C.ar      1 <0>         0.0803
     17 C10        -7.6292    0.8224   -1.1375 C.ar      1 <0>        -0.0517
     18 C11        -6.2472    0.8011   -1.1122 C.ar      1 <0>        -0.0882
     19 Cl1        -8.5182    1.1763    0.3110 Cl        1 <0>        -0.0502
     20 F1         -9.6559    0.5711   -2.3393 F         1 <0>        -0.1319
     21 O4          0.6909   -0.4678    1.1657 O.3       1 <0>        -0.5404
     22 H3          0.9913    1.9199    0.0208 H         1 <0>         0.0541
     23 H4         -0.5564    1.8996   -0.8580 H         1 <0>         0.0612
     24 H5         -0.5433    1.8815    0.9218 H         1 <0>         0.0625
     25 H6         -1.6433    0.2056   -1.9667 H         1 <0>         0.3903
     26 H7         -3.6362    0.8200   -3.0209 H         1 <0>         0.4078
     27 H8         -5.6661    0.0388   -4.3564 H         1 <0>         0.1422
     28 H9         -8.1266    0.0675   -4.3927 H         1 <0>         0.1467
     29 H10        -5.7202    1.0038   -0.1916 H         1 <0>         0.1636
     30 H11         1.6074   -0.1656    1.2282 H         1 <0>         0.3674
@<TRIPOS>BOND
     1    1    2 1
     2    1   22 1
     3    1   23 1
     4    1   24 1
     5    2    3 1
     6    2    4 1
     7    2   21 1
     8    4    5 1
     9    4    6 1
    10    4    9 1
    11    6    7 2
    12    6    8 1
    13    9   10 am
    14    9   25 1
    15   10   11 2
    16   10   12 am
    17   12   13 1
    18   12   26 1
    19   13   18 ar
    20   13   14 ar
    21   14   15 ar
    22   14   27 1
    23   15   16 ar
    24   15   28 1
    25   16   17 ar
    26   16   20 1
    27   17   18 ar
    28   17   19 1
    29   18   29 1
    30   21   30 1
@<TRIPOS>MOLECULE
ZINC44925707
   25    27     0     0     0
SMALL
USER_CHARGES

@<TRIPOS>ATOM
      1 C1         -0.0168    1.3869    0.0097 C.ar      1 <0>        -0.1202
      2 C2          1.1773    2.0850    0.0020 C.ar      1 <0>        -0.0786
      3 C3          2.3668    1.3976   -0.0130 C.ar      1 <0>        -0.1612
      4 C4          2.4285   -0.0135   -0.0212 C.ar      1 <0>         0.0317
      5 C5          1.1946   -0.7050   -0.0127 C.ar      1 <0>         0.2108
      6 C6          0.0021   -0.0041    0.0020 C.ar      1 <0>         0.1611
      7 N1         -1.2115   -0.7095    0.0103 N.pl3     1 <0>        -0.7341
      8 C7         -2.4822    0.0193    0.0268 C.3       1 <0>         0.2483
      9 C8         -3.6248   -0.9634    0.0329 C.2       1 <0>         0.0283
     10 N2         -4.2306   -1.4773   -1.0277 N.2       1 <0>        -0.3723
     11 N3         -5.1518   -2.2730   -0.6028 N.2       1 <0>        -0.1936
     12 N4         -5.1434   -2.2748    0.6848 N.2       1 <0>        -0.1936
     13 N5         -4.2132   -1.4843    1.0998 N.2       1 <0>        -0.3723
     14 N6          1.1802   -2.1056   -0.0201 N.pl3     1 <0>        -0.8641
     15 N7          3.6892   -0.4952   -0.0362 N.2       1 <0>        -0.4973
     16 C9          4.7291    0.2859   -0.0423 C.2       1 <0>         0.0522
     17 S1          4.0848    1.8406   -0.0276 S.3       1 <0>         0.0423
     18 H1         -0.9571    1.9180    0.0260 H         1 <0>         0.1400
     19 H2          1.1746    3.1650    0.0075 H         1 <0>         0.1298
     20 H3         -1.2086   -1.6795    0.0051 H         1 <0>         0.3945
     21 H4         -2.5329    0.6410    0.9207 H         1 <0>         0.0671
     22 H5         -2.5506    0.6505   -0.8592 H         1 <0>         0.0671
     23 H6          2.0151   -2.5992   -0.0310 H         1 <0>         0.4050
     24 H7          0.3352   -2.5819   -0.0143 H         1 <0>         0.3959
     25 H8          5.7709    0.0011   -0.0541 H         1 <0>         0.2134
@<TRIPOS>BOND
     1    1    6 ar
     2    1    2 ar
     3    1   18 1
     4    2    3 ar
     5    2   19 1
     6    3   17 1
     7    3    4 ar
     8    4    5 ar
     9    4   15 1
    10    5    6 ar
    11    5   14 1
    12    6    7 1
    13    7    8 1
    14    7   20 1
    15    8    9 1
    16    8   21 1
    17    8   22 1
    18    9   13 2
    19    9   10 1
    20   10   11 1
    21   11   12 2
    22   12   13 1
    23   14   23 1
    24   14   24 1
    25   15   16 2
    26   16   17 1
    27   16   25 1
@<TRIPOS>MOLECULE
ZINC61836065
   40    40     0     0     0
SMALL
USER_CHARGES

@<TRIPOS>ATOM
      1 C1         -0.0187    1.5258    0.0104 C.3       1 <0>        -0.1475
      2 C2          0.0021   -0.0041    0.0020 C.3       1 <0>        -0.0494
      3 H1         -1.0205   -0.3814    0.0098 H         1 <0>         0.0753
      4 C3          0.7421   -0.5109    1.2415 C.3       1 <0>        -0.1395
      5 C4         -0.0298   -0.1295    2.4784 C.2       1 <0>         0.5143
      6 O1         -1.0694    0.4871    2.3783 O.2       1 <0>        -0.5255
      7 N1          0.4352   -0.4734    3.6957 N.am      1 <0>        -0.7341
      8 C5         -0.3152   -0.1026    4.8981 C.3       1 <0>         0.1431
      9 C6          0.0633    1.3194    5.3171 C.3       1 <0>        -0.1314
     10 C7          1.5632    1.3819    5.6125 C.3       1 <0>        -0.0985
     11 C8          1.9010    0.4096    6.7446 C.3       1 <0>        -0.1076
     12 C9          1.5225   -1.0124    6.3255 C.3       1 <0>        -0.1114
     13 C10         0.0226   -1.0749    6.0301 C.3       1 <0>        -0.1244
     14 C11         3.3783    0.4712    7.0355 C.2       1 <0>         0.5187
     15 O2          4.0909    1.2190    6.4000 O.2       1 <0>        -0.5382
     16 N2          3.9077   -0.3048    8.0019 N.am      1 <0>        -0.8584
     17 C12         0.7182   -0.4975   -1.2568 C.3       1 <0>        -0.1806
     18 C13        -0.0771   -0.1029   -2.4745 C.2       1 <0>         0.4907
     19 O3         -1.1200    0.5157   -2.3473 O.co2     1 <0>        -0.6898
     20 O4          0.3224   -0.4021   -3.5868 O.co2     1 <0>        -0.7110
     21 H2          1.0039    1.9031    0.0027 H         1 <0>         0.0267
     22 H3         -0.5459    1.8868   -0.8726 H         1 <0>         0.0825
     23 H4         -0.5289    1.8773    0.9072 H         1 <0>         0.0543
     24 H5          0.8346   -1.5958    1.1912 H         1 <0>         0.0849
     25 H6          1.7350   -0.0630    1.2804 H         1 <0>         0.0859
     26 H7          1.2666   -0.9665    3.7758 H         1 <0>         0.3951
     27 H8         -1.3838   -0.1471    4.6876 H         1 <0>         0.0898
     28 H9         -0.1774    2.0120    4.5106 H         1 <0>         0.0755
     29 H10        -0.4950    1.5953    6.2117 H         1 <0>         0.0695
     30 H11         2.1215    1.1060    4.7179 H         1 <0>         0.0727
     31 H12         1.8328    2.3949    5.9110 H         1 <0>         0.0689
     32 H13         1.3427    0.6855    7.6392 H         1 <0>         0.0988
     33 H14         2.0808   -1.2883    5.4309 H         1 <0>         0.0686
     34 H15         1.7632   -1.7050    7.1320 H         1 <0>         0.0698
     35 H16        -0.5357   -0.7990    6.9247 H         1 <0>         0.0795
     36 H17        -0.2470   -2.0879    5.7316 H         1 <0>         0.0746
     37 H18         3.3378   -0.9030    8.5102 H         1 <0>         0.4002
     38 H19         4.8587   -0.2652    8.1892 H         1 <0>         0.3999
     39 H20         1.7103   -0.0491   -1.3098 H         1 <0>         0.0548
     40 H21         0.8116   -1.5829   -1.2198 H         1 <0>         0.0533
@<TRIPOS>BOND
     1    1    2 1
     2    1   21 1
     3    1   22 1
     4    1   23 1
     5    2    3 1
     6    2    4 1
     7    2   17 1
     8    4    5 1
     9    4   24 1
    10    4   25 1
    11    5    6 2
    12    5    7 am
    13    7    8 1
    14    7   26 1
    15    8   13 1
    16    8    9 1
    17    8   27 1
    18    9   10 1
    19    9   28 1
    20    9   29 1
    21   10   11 1
    22   10   30 1
    23   10   31 1
    24   11   12 1
    25   11   14 1
    26   11   32 1
    27   12   13 1
    28   12   33 1
    29   12   34 1
    30   13   35 1
    31   13   36 1
    32   14   15 2
    33   14   16 am
    34   16   37 1
    35   16   38 1
    36   17   18 1
    37   17   39 1
    38   17   40 1
    39   18   19 2
    40   18   20 1
@<TRIPOS>MOLECULE
ZINC13835681
   23    24     0     0     0
SMALL
USER_CHARGES
(1S,2R,5S,6S)-2-amino-6-fluoro-bicyclo[3.1.0]hexane-2,6-dicarboxylic acid
@<TRIPOS>ATOM
      1 C1          1.5988    1.9646    0.1520 C.3       1 <0>        -0.1107
      2 C2          1.4200    2.6882    1.5097 C.3       1 <0>        -0.1123
      3 C3         -0.0871    3.0454    1.5108 C.3       1 <0>         0.0386
      4 C4         -0.7656    1.8251    0.8546 C.3       1 <0>        -0.1557
      5 H1         -1.4512    1.2465    1.4737 H         1 <0>         0.1666
      6 C5          0.3064    1.1380   -0.0093 C.3       1 <0>        -0.1482
      7 H2          0.4046    0.0527   -0.0337 H         1 <0>         0.1360
      8 C6         -0.8925    1.7968   -0.6946 C.3       1 <0>         0.0341
      9 C7         -1.9310    0.8893   -1.3019 C.2       1 <0>         0.4897
     10 O1         -2.5715    0.1467   -0.5961 O.co2     1 <0>        -0.5945
     11 F1         -0.6657    2.9959   -1.3787 F         1 <0>        -0.1706
     12 C8         -0.5844    3.2302    2.9213 C.2       1 <0>         0.4694
     13 O2         -1.0836    2.3021    3.5124 O.co2     1 <0>        -0.5742
     14 H3          2.4696    1.3095    0.1806 H         1 <0>         0.0938
     15 H4          1.6917    2.6891   -0.6571 H         1 <0>         0.0732
     16 H5          1.6594    2.0208    2.3376 H         1 <0>         0.1084
     17 H6          2.0333    3.5883    1.5515 H         1 <0>         0.0888
     18 H7         -1.3008    4.5261    0.7538 H         1 <0>         0.4292
     19 H8          0.2656    5.0147    1.0251 H         1 <0>         0.4243
     20 O3         -2.1445    0.9060   -2.6270 O.co2     1 <0>        -0.7292
     21 O4         -0.4728    4.4259    3.5210 O.co2     1 <0>        -0.7415
     22 N1         -0.3219    4.2504    0.6958 N.4       1 <0>        -0.6315
     23 H9         -0.0887    4.0465   -0.2831 H         1 <0>         0.4163
@<TRIPOS>BOND
     1    1    6 1
     2    1    2 1
     3    1   14 1
     4    1   15 1
     5    2    3 1
     6    2   16 1
     7    2   17 1
     8    3    4 1
     9    3   12 1
    10    3   22 1
    11    4    5 1
    12    4    8 1
    13    4    6 1
    14    6    7 1
    15    6    8 1
    16    8    9 1
    17    8   11 1
    18    9   10 2
    19    9   20 1
    20   12   13 2
    21   12   21 1
    22   18   22 1
    23   19   22 1
    24   22   23 1
@<TRIPOS>MOLECULE
ZINC36971534
   35    35     0     0     0
SMALL
USER_CHARGES

@<TRIPOS>ATOM
      1 C1         -0.0225    1.8097    0.0120 C.3       1 <0>        -0.1209
      2 S1          0.0021   -0.0041    0.0020 S.3       1 <0>        -0.2729
      3 C2          0.8734   -0.4227   -1.5329 C.3       1 <0>        -0.0759
      4 C3          0.9658   -1.9439   -1.6683 C.3       1 <0>        -0.0932
      5 C4          1.7007   -2.2970   -2.9630 C.3       1 <0>         0.0804
      6 H1          2.6705   -1.7997   -2.9775 H         1 <0>         0.0876
      7 C5          1.9001   -3.7889   -3.0366 C.2       1 <0>         0.4928
      8 O1          1.2781   -4.4476   -3.8525 O.co2     1 <0>        -0.6829
      9 O2          2.6834   -4.3373   -2.2801 O.co2     1 <0>        -0.6919
     10 N1          0.9071   -1.8531   -4.1116 N.am      1 <0>        -0.6862
     11 C6          1.5124   -1.5843   -5.2855 C.2       1 <0>         0.5511
     12 O3          2.7165   -1.7102   -5.3910 O.2       1 <0>        -0.5380
     13 C7          0.7105   -1.1358   -6.4461 C.ar      1 <0>        -0.0855
     14 C8         -0.6715   -0.9859   -6.3233 C.ar      1 <0>        -0.0953
     15 C9         -1.4182   -0.5688   -7.4040 C.ar      1 <0>        -0.0644
     16 C10        -0.7922   -0.2959   -8.6211 C.ar      1 <0>        -0.1298
     17 C11         0.5899   -0.4454   -8.7438 C.ar      1 <0>        -0.0938
     18 C12         1.3372   -0.8575   -7.6616 C.ar      1 <0>        -0.0729
     19 C13        -1.5942    0.1516   -9.7820 C.2       1 <0>         0.5656
     20 O4         -2.7978    0.2815   -9.6753 O.2       1 <0>        -0.5399
     21 N2         -0.9896    0.4151  -10.9574 N.am      1 <0>        -0.8513
     22 H2          1.0001    2.1870    0.0043 H         1 <0>         0.0736
     23 H3         -0.5497    2.1708   -0.8711 H         1 <0>         0.0731
     24 H4         -0.5327    2.1613    0.9088 H         1 <0>         0.0980
     25 H5          0.3274   -0.0147   -2.3835 H         1 <0>         0.0777
     26 H6          1.8772    0.0015   -1.5082 H         1 <0>         0.0804
     27 H7          1.5118   -2.3519   -0.8177 H         1 <0>         0.0930
     28 H8         -0.0380   -2.3681   -1.6931 H         1 <0>         0.0730
     29 H9         -0.0540   -1.7527   -4.0274 H         1 <0>         0.3916
     30 H10        -1.1560   -1.1970   -5.3814 H         1 <0>         0.1352
     31 H11        -2.4878   -0.4534   -7.3091 H         1 <0>         0.1411
     32 H12         1.0744   -0.2347   -9.6857 H         1 <0>         0.1305
     33 H13         2.4073   -0.9693   -7.7554 H         1 <0>         0.1435
     34 H14        -0.0289    0.3115  -11.0426 H         1 <0>         0.4020
     35 H15        -1.5152    0.7084  -11.7181 H         1 <0>         0.4045
@<TRIPOS>BOND
     1    1    2 1
     2    1   22 1
     3    1   23 1
     4    1   24 1
     5    2    3 1
     6    3    4 1
     7    3   25 1
     8    3   26 1
     9    4    5 1
    10    4   27 1
    11    4   28 1
    12    5    6 1
    13    5    7 1
    14    5   10 1
    15    7    8 2
    16    7    9 1
    17   10   11 am
    18   10   29 1
    19   11   12 2
    20   11   13 1
    21   13   18 ar
    22   13   14 ar
    23   14   15 ar
    24   14   30 1
    25   15   16 ar
    26   15   31 1
    27   16   17 ar
    28   16   19 1
    29   17   18 ar
    30   17   32 1
    31   18   33 1
    32   19   20 2
    33   19   21 am
    34   21   34 1
    35   21   35 1
@<TRIPOS>MOLECULE
ZINC39465315
   30    32     0     0     0
SMALL
USER_CHARGES

@<TRIPOS>ATOM
      1 C1         -0.0167    1.3793    0.0096 C.ar      1 <0>        -0.1287
      2 C2          1.1705    2.0963    0.0021 C.ar      1 <0>        -0.0584
      3 C3          2.3784    1.4331   -0.0143 C.ar      1 <0>        -0.0504
      4 C4          2.4015    0.0448   -0.0219 C.ar      1 <0>        -0.1256
      5 C5          1.2212   -0.6756   -0.0137 C.ar      1 <0>         0.0803
      6 C6          0.0021   -0.0041    0.0020 C.ar      1 <0>         0.0796
      7 O1         -1.1640   -0.7038    0.0103 O.3       1 <0>        -0.4924
      8 O2          1.2514   -2.0352   -0.0213 O.3       1 <0>        -0.4928
      9 C7          3.6941    2.1663   -0.0266 C.3       1 <0>         0.0276
     10 H1          4.1099    2.1220   -1.0332 H         1 <0>         0.0687
     11 C8          4.6619    1.4719    0.9362 C.3       1 <0>         0.1151
     12 O3          5.9521    2.1059    0.8306 O.3       1 <0>        -0.7310
     13 P1          6.0245    3.7274    0.9334 P.3       1 <0>         2.2976
     14 O4          5.9929    4.1703    2.4132 O.2       1 <0>        -1.0965
     15 N1          4.6839    4.2842    0.1418 N.pl3     1 <0>        -1.0125
     16 N2          3.5215    3.5693    0.3492 N.3       1 <0>        -0.2631
     17 C9          2.4310    4.1888   -0.4194 C.3       1 <0>         0.0304
     18 C10         1.1004    3.6022    0.0135 C.3       1 <0>        -0.0759
     19 O5          7.3074    4.2489    0.2484 O.3       1 <0>        -1.0921
     20 H2         -0.9607    1.9036    0.0260 H         1 <0>         0.1346
     21 H3          3.3476   -0.4759   -0.0348 H         1 <0>         0.1399
     22 H4         -1.5104   -0.9014   -0.8706 H         1 <0>         0.3894
     23 H5          1.2693   -2.4332    0.8598 H         1 <0>         0.3917
     24 H6          4.2914    1.5644    1.9571 H         1 <0>         0.0695
     25 H7          4.7492    0.4184    0.6703 H         1 <0>         0.0893
     26 H8          4.7164    5.0706   -0.4250 H         1 <0>         0.3942
     27 H9          2.4339    5.2662   -0.2543 H         1 <0>         0.0931
     28 H10         2.5670    3.9793   -1.4804 H         1 <0>         0.0400
     29 H11         0.3052    3.9333   -0.6545 H         1 <0>         0.0863
     30 H12         0.8904    3.9479    1.0256 H         1 <0>         0.0920
@<TRIPOS>BOND
     1    1    6 ar
     2    1    2 ar
     3    1   20 1
     4    2   18 1
     5    2    3 ar
     6    3    4 ar
     7    3    9 1
     8    4    5 ar
     9    4   21 1
    10    5    6 ar
    11    5    8 1
    12    6    7 1
    13    7   22 1
    14    8   23 1
    15    9   10 1
    16    9   16 1
    17    9   11 1
    18   11   12 1
    19   11   24 1
    20   11   25 1
    21   12   13 1
    22   13   14 2
    23   13   15 1
    24   13   19 1
    25   15   16 1
    26   15   26 1
    27   16   17 1
    28   17   18 1
    29   17   27 1
    30   17   28 1
    31   18   29 1
    32   18   30 1
@<TRIPOS>MOLECULE
ZINC44884824
   25    26     0     0     0
SMALL
USER_CHARGES

@<TRIPOS>ATOM
      1 C1         -0.0169    1.3919    0.0097 C.ar      1 <0>        -0.1141
      2 C2          1.1682    2.0982    0.0022 C.ar      1 <0>        -0.1102
      3 C3          2.3789    1.4271   -0.0130 C.ar      1 <0>         0.0350
      4 C4          2.4075    0.0345   -0.0208 C.ar      1 <0>         0.1797
      5 C5          1.2227   -0.6818   -0.0133 C.ar      1 <0>        -0.1148
      6 C6          0.0021   -0.0041    0.0020 C.ar      1 <0>        -0.0860
      7 C7         -1.2660   -0.7621    0.0106 C.2       1 <0>         0.5550
      8 O1         -1.2476   -1.9776    0.0039 O.2       1 <0>        -0.5449
      9 N1         -2.4432   -0.1060    0.0258 N.am      1 <0>        -0.7044
     10 C8         -3.7006   -0.8577    0.0343 C.3       1 <0>         0.2393
     11 C9         -4.8607    0.1041    0.0510 C.2       1 <0>         0.0265
     12 N2         -5.4546    0.6071    1.1234 N.2       1 <0>        -0.3715
     13 N3         -6.3983    1.3860    0.7170 N.2       1 <0>        -0.1927
     14 N4         -6.4155    1.3877   -0.5705 N.2       1 <0>        -0.1927
     15 N5         -5.4795    0.6140   -1.0040 N.2       1 <0>        -0.3715
     16 N6          3.6327   -0.6400   -0.0366 N.pl3     1 <0>        -0.8738
     17 F1          3.5358    2.1247   -0.0208 F         1 <0>        -0.1424
     18 H1         -0.9594    1.9189    0.0260 H         1 <0>         0.1356
     19 H2          1.1513    3.1781    0.0078 H         1 <0>         0.1409
     20 H3          1.2426   -1.7616   -0.0197 H         1 <0>         0.1448
     21 H4         -2.4579    0.8639    0.0311 H         1 <0>         0.4016
     22 H5         -3.7577   -1.4804   -0.8585 H         1 <0>         0.0774
     23 H6         -3.7400   -1.4899    0.9213 H         1 <0>         0.0774
     24 H7          4.4627   -0.1379   -0.0421 H         1 <0>         0.4015
     25 H8          3.6525   -1.6098   -0.0420 H         1 <0>         0.4040
@<TRIPOS>BOND
     1    1    6 ar
     2    1    2 ar
     3    1   18 1
     4    2    3 ar
     5    2   19 1
     6    3    4 ar
     7    3   17 1
     8    4    5 ar
     9    4   16 1
    10    5    6 ar
    11    5   20 1
    12    6    7 1
    13    7    8 2
    14    7    9 am
    15    9   10 1
    16    9   21 1
    17   10   11 1
    18   10   22 1
    19   10   23 1
    20   11   15 2
    21   11   12 1
    22   12   13 1
    23   13   14 2
    24   14   15 1
    25   16   24 1
    26   16   25 1
@<TRIPOS>MOLECULE
ZINC30724509
   20    19     0     0     0
SMALL
USER_CHARGES

@<TRIPOS>ATOM
      1 C1         -0.0184    1.5028    0.0103 C.3       1 <0>         0.0253
      2 C2          0.0021   -0.0041    0.0020 C.2       1 <0>         0.3415
      3 O1          1.0559   -0.5936   -0.0112 O.2       1 <0>        -0.4278
      4 C3         -1.2926   -0.7753    0.0102 C.3       1 <0>         0.0457
      5 H1         -1.9835   -0.3330   -0.7075 H         1 <0>         0.1550
      6 C4         -1.9085   -0.7230    1.4098 C.3       1 <0>         0.0343
      7 H2         -2.1834    0.3046    1.6476 H         1 <0>         0.1434
      8 C5         -3.1375   -1.5941    1.4507 C.2       1 <0>         0.2849
      9 O2         -3.0999   -2.6657    2.0063 O.2       1 <0>        -0.4378
     10 C6         -4.4021   -1.1322    0.8040 C.2       1 <0>         0.4721
     11 O3         -5.3974   -1.8376    0.8371 O.co2     1 <0>        -0.6443
     12 O4         -4.4401   -0.0492    0.2426 O.co2     1 <0>        -0.6656
     13 O5         -0.9579   -1.1953    2.3665 O.3       1 <0>        -0.5492
     14 O6         -1.0393   -2.1352   -0.3482 O.3       1 <0>        -0.5324
     15 O7          1.3223    1.9974    0.0002 O.3       1 <0>        -0.5566
     16 H3         -0.5455    1.8639   -0.8728 H         1 <0>         0.0879
     17 H4         -0.5286    1.8543    0.9071 H         1 <0>         0.0886
     18 H5         -0.6677   -2.1054    2.2163 H         1 <0>         0.3760
     19 H6         -0.4310   -2.5924    0.2485 H         1 <0>         0.3762
     20 H7          1.3855    2.9623    0.0047 H         1 <0>         0.3827
@<TRIPOS>BOND
     1    1    2 1
     2    1   15 1
     3    1   16 1
     4    1   17 1
     5    2    3 2
     6    2    4 1
     7    4    5 1
     8    4    6 1
     9    4   14 1
    10    6    7 1
    11    6    8 1
    12    6   13 1
    13    8    9 2
    14    8   10 1
    15   10   11 2
    16   10   12 1
    17   13   18 1
    18   14   19 1
    19   15   20 1
@<TRIPOS>MOLECULE
ZINC01572176
   32    31     0     0     0
SMALL
USER_CHARGES
2-[6-(carboxymethylsulfanyl)hexylsulfanyl]acetic acid
@<TRIPOS>ATOM
      1 C1          5.6003    8.1528   -0.0076 C.3       1 <0>        -0.1134
      2 C2          4.1891    7.5618    0.0027 C.3       1 <0>        -0.1134
      3 C3          4.2758    6.0343   -0.0064 C.3       1 <0>        -0.0983
      4 C4          2.8645    5.4433    0.0039 C.3       1 <0>        -0.1077
      5 S1          2.9673    3.6322   -0.0068 S.3       1 <0>        -0.2248
      6 C5          1.2350    3.0943    0.0069 C.3       1 <0>        -0.1242
      7 C6          1.1765    1.5884   -0.0006 C.2       1 <0>         0.4791
      8 O1          2.1986    0.9442   -0.0139 O.co2     1 <0>        -0.6144
      9 C7          5.5136    9.6803    0.0014 C.3       1 <0>        -0.0983
     10 C8          6.9248   10.2713   -0.0089 C.3       1 <0>        -0.1077
     11 S2          6.8220   12.0823    0.0018 S.3       1 <0>        -0.2248
     12 C9          8.5544   12.6203   -0.0118 C.3       1 <0>        -0.1241
     13 C10         8.6128   14.1261   -0.0043 C.2       1 <0>         0.4791
     14 O2          7.5907   14.7703    0.0089 O.co2     1 <0>        -0.6144
     15 H1          6.1423    7.8144    0.8754 H         1 <0>         0.0626
     16 H2          6.1254    7.8239   -0.9044 H         1 <0>         0.0626
     17 H3          3.6470    7.9002   -0.8804 H         1 <0>         0.0626
     18 H4          3.6640    7.8906    0.8995 H         1 <0>         0.0626
     19 H5          4.8178    5.6959    0.8767 H         1 <0>         0.0693
     20 H6          4.8008    5.7054   -0.9032 H         1 <0>         0.0693
     21 H7          2.3225    5.7817   -0.8791 H         1 <0>         0.0712
     22 H8          2.3395    5.7721    0.9008 H         1 <0>         0.0712
     23 H9          0.7271    3.4820   -0.8762 H         1 <0>         0.0802
     24 H10         0.7441    3.4725    0.9036 H         1 <0>         0.0802
     25 H11         4.9715   10.0187   -0.8816 H         1 <0>         0.0693
     26 H12         4.9885   10.0091    0.8982 H         1 <0>         0.0693
     27 H13         7.4669    9.9329    0.8741 H         1 <0>         0.0712
     28 H14         7.4499    9.9424   -0.9057 H         1 <0>         0.0712
     29 H15         9.0622   12.2325    0.8713 H         1 <0>         0.0802
     30 H16         9.0452   12.2421   -0.9086 H         1 <0>         0.0802
     31 O3         -0.0110    0.9628    0.0073 O.co2     1 <0>        -0.7630
     32 O4          9.8004   14.7517   -0.0123 O.co2     1 <0>        -0.7630
@<TRIPOS>BOND
     1    1    2 1
     2    1    9 1
     3    1   15 1
     4    1   16 1
     5    2    3 1
     6    2   17 1
     7    2   18 1
     8    3    4 1
     9    3   19 1
    10    3   20 1
    11    4    5 1
    12    4   21 1
    13    4   22 1
    14    5    6 1
    15    6    7 1
    16    6   23 1
    17    6   24 1
    18    7    8 2
    19    7   31 1
    20    9   10 1
    21    9   25 1
    22    9   26 1
    23   10   11 1
    24   10   27 1
    25   10   28 1
    26   11   12 1
    27   12   13 1
    28   12   29 1
    29   12   30 1
    30   13   14 2
    31   13   32 1
@<TRIPOS>MOLECULE
ZINC31919272
   26    28     0     0     0
SMALL
USER_CHARGES
2-[4-(2-hydroxy-1,3-benzoxazol-6-yl)-2-oxo-thiazol-3-yl]acetic acid
@<TRIPOS>ATOM
      1 C1         -1.0842    2.8281   -0.9063 C.ar      1 <0>        -0.0754
      2 C2          0.0783    3.5432   -0.9309 C.ar      1 <0>        -0.1328
      3 C3          1.1257    3.2044   -0.0716 C.ar      1 <0>         0.1097
      4 C4          0.9814    2.1271    0.8177 C.ar      1 <0>        -0.0374
      5 C5         -0.1978    1.4050    0.8392 C.ar      1 <0>        -0.0385
      6 C6         -1.2376    1.7572   -0.0198 C.ar      1 <0>        -0.1138
      7 C7         -2.5035    0.9930    0.0021 C.2       1 <0>         0.1938
      8 C8         -3.6931    1.6218    0.1185 C.2       1 <0>        -0.2369
      9 S1         -4.8353    0.2513    0.0868 S.3       1 <0>        -0.0832
     10 C9         -3.6815   -1.0347   -0.0659 C.2       1 <0>         0.5165
     11 O1         -3.8826   -2.2341   -0.1347 O.2       1 <0>        -0.4740
     12 N1         -2.5037   -0.3727   -0.0894 N.am      1 <0>        -0.5074
     13 C10        -1.2423   -1.1078   -0.2110 C.3       1 <0>         0.0435
     14 C11        -0.8025   -1.5794    1.1511 C.2       1 <0>         0.4594
     15 O2         -1.4738   -1.3273    2.1236 O.co2     1 <0>        -0.6241
     16 O3          0.3350   -2.2795    1.2840 O.co2     1 <0>        -0.7542
     17 O4          2.1420    2.0447    1.5078 O.3       1 <0>        -0.2658
     18 C12         2.9600    3.0172    1.0701 C.2       1 <0>         0.5143
     19 N2          2.3718    3.7129    0.1340 N.2       1 <0>        -0.6145
     20 O5          4.2103    3.2430    1.5320 O.3       1 <0>        -0.6531
     21 H1         -1.8919    3.0936   -1.5723 H         1 <0>         0.1229
     22 H2          0.1879    4.3717   -1.6150 H         1 <0>         0.1208
     23 H3         -0.3141    0.5756    1.5211 H         1 <0>         0.1390
     24 H4         -3.8992    2.6783    0.2066 H         1 <0>         0.1947
     25 H5         -1.3861   -1.9760   -0.8709 H         1 <0>         0.0923
     26 H6         -0.4725   -0.4473   -0.6366 H         1 <0>         0.1043
@<TRIPOS>BOND
     1    1    6 ar
     2    1    2 ar
     3    1   21 1
     4    2    3 ar
     5    2   22 1
     6    3   19 1
     7    3    4 ar
     8    4    5 ar
     9    4   17 1
    10    5    6 ar
    11    5   23 1
    12    6    7 1
    13    7   12 1
    14    7    8 2
    15    8    9 1
    16    8   24 1
    17    9   10 1
    18   10   11 2
    19   10   12 am
    20   12   13 1
    21   13   14 1
    22   13   25 1
    23   13   26 1
    24   14   15 2
    25   14   16 1
    26   17   18 1
    27   18   19 2
    28   18   20 1
@<TRIPOS>MOLECULE
ZINC39123721
   22    22     0     0     0
SMALL
USER_CHARGES

@<TRIPOS>ATOM
      1 C1         -0.0048    1.5025   -0.0899 C.3       1 <0>        -0.0800
      2 C2          0.0084   -0.0038   -0.0456 C.ar      1 <0>         0.0536
      3 C3          0.0192   -0.7250   -1.2390 C.ar      1 <0>         0.0672
      4 C4          0.0314   -2.1241   -1.1852 C.ar      1 <0>        -0.1052
      5 C5          0.0322   -2.7381    0.0882 C.ar      1 <0>        -0.1145
      6 C6          0.0209   -1.9312    1.2224 C.ar      1 <0>         0.0695
      7 N1          0.0150   -0.6168    1.1183 N.ar      1 <0>        -0.4843
      8 C7          0.0444   -4.2097    0.2130 C.2       1 <0>         0.5635
      9 O1         -1.0052   -4.8356    0.1703 O.co2     1 <0>        -0.6885
     10 O2          1.1039   -4.8022    0.3589 O.co2     1 <0>        -0.6946
     11 C8          0.0426   -2.9333   -2.4205 C.2       1 <0>         0.5178
     12 O3         -0.0593   -2.3875   -3.5099 O.co2     1 <0>        -0.6918
     13 O4          0.1538   -4.1492   -2.3539 O.co2     1 <0>        -0.6425
     14 O5          0.0174   -0.0817   -2.4325 O.3       1 <0>        -0.3084
     15 C9          1.2897    0.2378   -2.9992 C.3       1 <0>         0.0559
     16 H1          1.0196    1.8747   -0.1017 H         1 <0>         0.0578
     17 H2         -0.5225    1.8350   -0.9896 H         1 <0>         0.0688
     18 H3         -0.5211    1.8874    0.7896 H         1 <0>         0.0629
     19 H4          0.0210   -2.3879    2.2011 H         1 <0>         0.1455
     20 H5          1.1454    0.7492   -3.9509 H         1 <0>         0.0783
     21 H6          1.8384    0.8874   -2.3172 H         1 <0>         0.0224
     22 H7          1.8557   -0.6794   -3.1617 H         1 <0>         0.0465
@<TRIPOS>BOND
     1    1    2 1
     2    1   16 1
     3    1   17 1
     4    1   18 1
     5    2    7 ar
     6    2    3 ar
     7    3    4 ar
     8    3   14 1
     9    4    5 ar
    10    4   11 1
    11    5    6 ar
    12    5    8 1
    13    6    7 ar
    14    6   19 1
    15    8    9 2
    16    8   10 1
    17   11   12 2
    18   11   13 1
    19   14   15 1
    20   15   20 1
    21   15   21 1
    22   15   22 1
@<TRIPOS>MOLECULE
ZINC57549042
   27    28     0     0     0
SMALL
USER_CHARGES

@<TRIPOS>ATOM
      1 C1         -0.0173    1.4248    0.0099 C.3       1 <0>         0.0290
      2 O1          0.0021   -0.0041    0.0020 O.3       1 <0>        -0.3220
      3 C2          0.6259   -0.6184    1.0416 C.ar      1 <0>         0.0869
      4 C3          1.2020    0.1399    2.0509 C.ar      1 <0>        -0.1805
      5 C4          1.8353   -0.4835    3.1072 C.ar      1 <0>        -0.0902
      6 C5          1.8958   -1.8699    3.1597 C.ar      1 <0>         0.1517
      7 C6          1.3191   -2.6284    2.1494 C.ar      1 <0>        -0.1136
      8 C7          0.6814   -2.0039    1.0963 C.ar      1 <0>        -0.1221
      9 N1          2.5391   -2.5034    4.2317 N.pl3     1 <0>        -0.2745
     10 C8          2.6505   -3.8381    4.3622 C.2       1 <0>        -0.0400
     11 C9          3.3435   -4.0732    5.5356 C.2       1 <0>        -0.1912
     12 C10         3.6195   -2.7269    6.0675 C.2       1 <0>         0.0418
     13 N2          3.0972   -1.8816    5.2035 N.2       1 <0>        -0.3031
     14 C11         4.3376   -2.3943    7.3105 C.2       1 <0>         0.5502
     15 O2          4.7763   -3.2880    8.0212 O.co2     1 <0>        -0.6137
     16 O3          4.4950   -1.2245    7.6316 O.co2     1 <0>        -0.7101
     17 C12         3.7184   -5.3697    6.1193 C.2       1 <0>         0.5390
     18 O4          3.4116   -6.4085    5.5502 O.co2     1 <0>        -0.7295
     19 O5          4.3370   -5.4098    7.1742 O.co2     1 <0>        -0.6236
     20 H1          1.0053    1.8021    0.0021 H         1 <0>         0.0529
     21 H2         -0.5445    1.7859   -0.8732 H         1 <0>         0.0930
     22 H3         -0.5275    1.7763    0.9067 H         1 <0>         0.0529
     23 H4          1.1552    1.2181    2.0097 H         1 <0>         0.1295
     24 H5          2.2839    0.1069    3.8924 H         1 <0>         0.1444
     25 H6          1.3658   -3.7066    2.1897 H         1 <0>         0.1397
     26 H7          0.2293   -2.5937    0.3126 H         1 <0>         0.1333
     27 H8          2.2702   -4.5842    3.6802 H         1 <0>         0.1700
@<TRIPOS>BOND
     1    1    2 1
     2    1   20 1
     3    1   21 1
     4    1   22 1
     5    2    3 1
     6    3    8 ar
     7    3    4 ar
     8    4    5 ar
     9    4   23 1
    10    5    6 ar
    11    5   24 1
    12    6    7 ar
    13    6    9 1
    14    7    8 ar
    15    7   25 1
    16    8   26 1
    17    9   13 1
    18    9   10 1
    19   10   11 2
    20   10   27 1
    21   11   12 1
    22   11   17 1
    23   12   13 2
    24   12   14 1
    25   14   15 2
    26   14   16 1
    27   17   18 2
    28   17   19 1
@<TRIPOS>MOLECULE
ZINC62326135
   32    33     0     0     0
SMALL
USER_CHARGES

@<TRIPOS>ATOM
      1 C1         -0.0187    1.5258    0.0104 C.3       1 <0>        -0.1402
      2 C2          0.0021   -0.0041    0.0020 C.3       1 <0>        -0.0424
      3 C3         -1.4333   -0.5336    0.0129 C.3       1 <0>        -0.1399
      4 C4          0.7074   -0.4901   -1.2379 C.ar      1 <0>        -0.1824
      5 C5          0.2216   -0.1509   -2.4875 C.ar      1 <0>        -0.0508
      6 C6          0.8617   -0.5936   -3.6280 C.ar      1 <0>        -0.1652
      7 C7          2.0003   -1.3834   -3.5216 C.ar      1 <0>         0.2792
      8 C8          2.4831   -1.7176   -2.2613 C.ar      1 <0>        -0.7715
      9 C9          1.8447   -1.2711   -1.1257 C.ar      1 <0>         0.0142
     10 S1          3.9337   -2.7150   -2.1502 S.o2      1 <0>         2.6207
     11 O1          4.8371   -2.0310   -1.2927 O.2       1 <0>        -1.0029
     12 O2          3.4992   -4.0445   -1.8998 O.2       1 <0>        -1.0092
     13 N1          4.6097   -2.7042   -3.6642 N.2       1 <0>        -1.0185
     14 C10         3.9375   -2.2894   -4.6896 C.2       1 <0>         0.4444
     15 N2          2.6522   -1.8397   -4.6641 N.2       1 <0>        -0.6949
     16 S2          4.7543   -2.3085   -6.2507 S.3       1 <0>         0.0045
     17 C11         6.4058   -2.9574   -5.8739 C.3       1 <0>        -0.1602
     18 C12         7.2195   -3.0262   -7.1405 C.2       1 <0>         0.5143
     19 O3          6.7306   -2.6705   -8.1992 O.co2     1 <0>        -0.6809
     20 O4          8.3667   -3.4376   -7.1065 O.co2     1 <0>        -0.6955
     21 H1          1.0039    1.9031    0.0027 H         1 <0>         0.0541
     22 H2         -0.5459    1.8868   -0.8726 H         1 <0>         0.0534
     23 H3         -0.5289    1.8773    0.9072 H         1 <0>         0.0465
     24 H4          0.5293   -0.3651    0.8851 H         1 <0>         0.0672
     25 H5         -1.9605   -0.1726   -0.8702 H         1 <0>         0.0534
     26 H6         -1.4185   -1.6235    0.0069 H         1 <0>         0.0535
     27 H7         -1.9435   -0.1821    0.9097 H         1 <0>         0.0464
     28 H8         -0.6631    0.4629   -2.5717 H         1 <0>         0.1088
     29 H9          0.4779   -0.3266   -4.6015 H         1 <0>         0.1194
     30 H10         2.2278   -1.5333   -0.1505 H         1 <0>         0.1053
     31 H11         6.9005   -2.2992   -5.1596 H         1 <0>         0.0849
     32 H12         6.3150   -3.9556   -5.4457 H         1 <0>         0.0843
@<TRIPOS>BOND
     1    1    2 1
     2    1   21 1
     3    1   22 1
     4    1   23 1
     5    2    3 1
     6    2    4 1
     7    2   24 1
     8    3   25 1
     9    3   26 1
    10    3   27 1
    11    4    9 ar
    12    4    5 ar
    13    5    6 ar
    14    5   28 1
    15    6    7 ar
    16    6   29 1
    17    7   15 1
    18    7    8 ar
    19    8    9 ar
    20    8   10 1
    21    9   30 1
    22   10   11 2
    23   10   12 2
    24   10   13 1
    25   13   14 2
    26   14   15 1
    27   14   16 1
    28   16   17 1
    29   17   18 1
    30   17   31 1
    31   17   32 1
    32   18   19 2
    33   18   20 1
@<TRIPOS>MOLECULE
ZINC37431233
   35    34     0     0     0
SMALL
USER_CHARGES

@<TRIPOS>ATOM
      1 C1         -0.0225    1.8097    0.0120 C.3       1 <0>        -0.1207
      2 S1          0.0021   -0.0041    0.0020 S.3       1 <0>        -0.2744
      3 C2          0.8734   -0.4227   -1.5329 C.3       1 <0>        -0.0744
      4 C3          0.9658   -1.9439   -1.6683 C.3       1 <0>        -0.0928
      5 C4          1.7007   -2.2970   -2.9630 C.3       1 <0>         0.0818
      6 H1          1.2046   -1.8150   -3.8054 H         1 <0>         0.0846
      7 C5          1.6844   -3.7912   -3.1584 C.2       1 <0>         0.4922
      8 O1          0.6411   -4.3587   -3.4336 O.co2     1 <0>        -0.6940
      9 O2          2.7147   -4.4326   -3.0411 O.co2     1 <0>        -0.6844
     10 N1          3.0869   -1.8303   -2.8805 N.am      1 <0>        -0.6946
     11 C6          3.7754   -1.5607   -4.0073 C.2       1 <0>         0.5199
     12 O3          3.2474   -1.7043   -5.0896 O.2       1 <0>        -0.5503
     13 C7          5.2014   -1.0807   -3.9224 C.3       1 <0>        -0.1214
     14 C8          5.7468   -0.8502   -5.3332 C.3       1 <0>        -0.0813
     15 S2          7.4633   -0.2724   -5.2310 S.3       1 <0>        -0.1902
     16 C9          7.9552   -0.0497   -6.9627 C.3       1 <0>        -0.1317
     17 C10         9.3809    0.4349   -7.0216 C.2       1 <0>         0.5354
     18 O4         10.0039    0.6126   -5.9963 O.2       1 <0>        -0.5196
     19 N2          9.9638    0.6709   -8.2137 N.am      1 <0>        -0.8530
     20 H2          1.0001    2.1870    0.0043 H         1 <0>         0.0732
     21 H3         -0.5497    2.1708   -0.8711 H         1 <0>         0.0734
     22 H4         -0.5327    2.1613    0.9088 H         1 <0>         0.0978
     23 H5          0.3274   -0.0147   -2.3835 H         1 <0>         0.0793
     24 H6          1.8772    0.0015   -1.5082 H         1 <0>         0.0783
     25 H7          1.5118   -2.3519   -0.8177 H         1 <0>         0.0726
     26 H8         -0.0380   -2.3681   -1.6931 H         1 <0>         0.0909
     27 H9          3.5093   -1.7155   -2.0148 H         1 <0>         0.3928
     28 H10         5.2376   -0.1466   -3.3618 H         1 <0>         0.0962
     29 H11         5.8081   -1.8317   -3.4165 H         1 <0>         0.1029
     30 H12         5.7107   -1.7843   -5.8938 H         1 <0>         0.0915
     31 H13         5.1401   -0.0992   -5.8391 H         1 <0>         0.0879
     32 H14         7.8726   -1.0006   -7.4891 H         1 <0>         0.1128
     33 H15         7.3021    0.6846   -7.4344 H         1 <0>         0.1115
     34 H16         9.4656    0.5289   -9.0338 H         1 <0>         0.4027
     35 H17        10.8815    0.9829   -8.2516 H         1 <0>         0.4050
@<TRIPOS>BOND
     1    1    2 1
     2    1   20 1
     3    1   21 1
     4    1   22 1
     5    2    3 1
     6    3    4 1
     7    3   23 1
     8    3   24 1
     9    4    5 1
    10    4   25 1
    11    4   26 1
    12    5    6 1
    13    5    7 1
    14    5   10 1
    15    7    8 2
    16    7    9 1
    17   10   11 am
    18   10   27 1
    19   11   12 2
    20   11   13 1
    21   13   14 1
    22   13   28 1
    23   13   29 1
    24   14   15 1
    25   14   30 1
    26   14   31 1
    27   15   16 1
    28   16   17 1
    29   16   32 1
    30   16   33 1
    31   17   18 2
    32   17   19 am
    33   19   34 1
    34   19   35 1
@<TRIPOS>MOLECULE
ZINC40560370
   30    30     0     0     0
SMALL
USER_CHARGES

@<TRIPOS>ATOM
      1 C1          2.3914    2.7739   -1.5677 C.3       1 <0>        -0.1807
      2 C2          1.1295    2.0947   -1.0320 C.3       1 <0>         0.1106
      3 H1          1.0379    1.1009   -1.4702 H         1 <0>         0.0547
      4 C3          1.2223    1.9743    0.4904 C.3       1 <0>         0.0984
      5 H2          1.3139    2.9681    0.9286 H         1 <0>         0.0890
      6 C4         -0.0207    1.3052    1.0181 C.2       1 <0>         0.4977
      7 O1         -0.0597    0.0916    1.1287 O.co2     1 <0>        -0.6974
      8 O2         -0.9874    1.9775    1.3344 O.co2     1 <0>        -0.6805
      9 N1          2.3964    1.1736    0.8463 N.am      1 <0>        -0.6992
     10 C5          2.9793    1.3309    2.0513 C.2       1 <0>         0.7155
     11 O3          2.5307    2.1373    2.8430 O.2       1 <0>        -0.5718
     12 N2          4.0594    0.5943    2.3786 N.am      1 <0>        -0.7048
     13 C6          4.7288    0.8304    3.5880 C.ar      1 <0>         0.1519
     14 C7          4.2938    0.2151    4.7564 C.ar      1 <0>         0.1540
     15 C8          4.9562    0.4495    5.9474 C.ar      1 <0>        -0.1743
     16 C9          6.0516    1.2963    5.9764 C.ar      1 <0>         0.1386
     17 C10         6.4858    1.9101    4.8141 C.ar      1 <0>        -0.1357
     18 C11         5.8304    1.6745    3.6196 C.ar      1 <0>        -0.0373
     19 Br1         6.4300    2.5072    2.0312 Br        1 <0>        -0.0114
     20 F1          6.6974    1.5240    7.1410 F         1 <0>        -0.1243
     21 F2          3.2249   -0.6107    4.7282 F         1 <0>        -0.1076
     22 O4         -0.0158    2.8757   -1.3791 O.3       1 <0>        -0.5407
     23 H3          3.2650    2.1782   -1.3029 H         1 <0>         0.0620
     24 H4          2.3253    2.8598   -2.6523 H         1 <0>         0.0530
     25 H5          2.4830    3.7678   -1.1295 H         1 <0>         0.0620
     26 H6          2.7542    0.5302    0.2147 H         1 <0>         0.3894
     27 H7          4.3738   -0.0993    1.7777 H         1 <0>         0.4082
     28 H8          4.6188   -0.0278    6.8556 H         1 <0>         0.1591
     29 H9          7.3401    2.5703    4.8395 H         1 <0>         0.1552
     30 H10        -0.1375    2.9937   -2.3311 H         1 <0>         0.3666
@<TRIPOS>BOND
     1    1    2 1
     2    1   23 1
     3    1   24 1
     4    1   25 1
     5    2    3 1
     6    2    4 1
     7    2   22 1
     8    4    5 1
     9    4    6 1
    10    4    9 1
    11    6    7 2
    12    6    8 1
    13    9   10 am
    14    9   26 1
    15   10   11 2
    16   10   12 am
    17   12   13 1
    18   12   27 1
    19   13   18 ar
    20   13   14 ar
    21   14   15 ar
    22   14   21 1
    23   15   16 ar
    24   15   28 1
    25   16   17 ar
    26   16   20 1
    27   17   18 ar
    28   17   29 1
    29   18   19 1
    30   22   30 1
@<TRIPOS>MOLECULE
ZINC44933218
   36    37     0     0     0
SMALL
USER_CHARGES

@<TRIPOS>ATOM
      1 C1         -1.0436   -1.3401   -0.5538 C.3       1 <0>        -0.1483
      2 C2         -1.7310   -0.8057    0.7042 C.3       1 <0>         0.2602
      3 H1         -1.7118    0.2841    0.6937 H         1 <0>         0.0932
      4 C3         -3.1602   -1.2826    0.7369 C.2       1 <0>         0.0383
      5 N1         -4.2402   -0.5605    0.4760 N.2       1 <0>        -0.3763
      6 N2         -5.2657   -1.3302    0.6117 N.2       1 <0>        -0.1927
      7 N3         -4.8654   -2.5069    0.9478 N.2       1 <0>        -0.1913
      8 N4         -3.5784   -2.5062    1.0263 N.2       1 <0>        -0.3771
      9 N5         -1.0257   -1.2950    1.8914 N.am      1 <0>        -0.6988
     10 C4          0.0523   -0.6326    2.3555 C.2       1 <0>         0.5275
     11 O1          0.4934    0.3148    1.7400 O.2       1 <0>        -0.5361
     12 C5          0.7098   -1.0690    3.6394 C.3       1 <0>        -0.0677
     13 C6          1.7873   -0.0558    4.0308 C.3       1 <0>        -0.0860
     14 C7          1.1466    1.3196    4.2278 C.3       1 <0>        -0.1273
     15 C8          0.0958    1.2385    5.3369 C.3       1 <0>        -0.1193
     16 C9         -0.9817    0.2253    4.9455 C.3       1 <0>        -0.1263
     17 C10        -0.3410   -1.1501    4.7486 C.3       1 <0>        -0.0951
     18 C11         1.3408   -2.4237    3.4454 C.2       1 <0>         0.2933
     19 S1          0.7913   -3.6857    4.2591 S.2       1 <0>        -0.4277
     20 N6          2.3685   -2.5715    2.5860 N.pl3     1 <0>        -0.7763
     21 H2         -1.0629   -2.4299   -0.5433 H         1 <0>         0.0582
     22 H3         -1.5684   -0.9760   -1.4371 H         1 <0>         0.0646
     23 H4         -0.0099   -0.9952   -0.5774 H         1 <0>         0.0555
     24 H5         -1.3346   -2.0958    2.3433 H         1 <0>         0.4103
     25 H6          2.2628   -0.3715    4.9594 H         1 <0>         0.0722
     26 H7          2.5359    0.0020    3.2406 H         1 <0>         0.0681
     27 H8          1.9142    2.0414    4.5066 H         1 <0>         0.0636
     28 H9          0.6711    1.6353    3.2991 H         1 <0>         0.0893
     29 H10         0.5713    0.9229    6.2655 H         1 <0>         0.0608
     30 H11        -0.3607    2.2184    5.4772 H         1 <0>         0.0628
     31 H12        -1.7303    0.1675    5.7357 H         1 <0>         0.0719
     32 H13        -1.4572    0.5410    4.0169 H         1 <0>         0.0642
     33 H14        -1.1087   -1.8719    4.4698 H         1 <0>         0.0876
     34 H15         0.1345   -1.4658    5.6772 H         1 <0>         0.0872
     35 H16         2.6546   -1.8234    2.0388 H         1 <0>         0.3994
     36 H17         2.8220   -3.4260    2.5146 H         1 <0>         0.4181
@<TRIPOS>BOND
     1    1    2 1
     2    1   21 1
     3    1   22 1
     4    1   23 1
     5    2    3 1
     6    2    4 1
     7    2    9 1
     8    4    5 1
     9    4    8 2
    10    5    6 1
    11    6    7 2
    12    7    8 1
    13    9   10 am
    14    9   24 1
    15   10   11 2
    16   10   12 1
    17   12   17 1
    18   12   13 1
    19   12   18 1
    20   13   14 1
    21   13   25 1
    22   13   26 1
    23   14   15 1
    24   14   27 1
    25   14   28 1
    26   15   16 1
    27   15   29 1
    28   15   30 1
    29   16   17 1
    30   16   31 1
    31   16   32 1
    32   17   33 1
    33   17   34 1
    34   18   19 2
    35   18   20 1
    36   20   35 1
    37   20   36 1
@<TRIPOS>MOLECULE
ZINC54335759
   36    36     0     0     0
SMALL
USER_CHARGES

@<TRIPOS>ATOM
      1 C1         -0.0205    1.5285    0.0109 C.3       1 <0>        -0.1156
      2 C2          0.0010   -0.0014    0.0036 C.3       1 <0>        -0.1731
      3 H1          0.5119   -0.3533   -0.8926 H         1 <0>         0.0676
      4 C3         -1.4342   -0.5316    0.0141 C.3       1 <0>         0.1590
      5 N1         -2.1057   -0.1475   -1.2300 N.am      1 <0>        -0.7369
      6 C4         -3.3867   -0.5081   -1.4434 C.2       1 <0>         0.7049
      7 O1         -3.9560   -1.2292   -0.6470 O.2       1 <0>        -0.5900
      8 N2         -4.0366   -0.0694   -2.5396 N.am      1 <0>        -0.6331
      9 C5         -3.3300    0.7053   -3.5688 C.3       1 <0>         0.1088
     10 C6         -4.0930    2.0110   -3.8137 C.3       1 <0>        -0.1356
     11 C7         -5.5490    1.6894   -4.1581 C.3       1 <0>        -0.0977
     12 C8         -6.2040    0.9604   -2.9826 C.3       1 <0>        -0.1270
     13 H2         -6.1503    1.5855   -2.0913 H         1 <0>         0.1039
     14 C9         -5.4636   -0.3620   -2.7310 C.3       1 <0>         0.1430
     15 C10        -7.6469    0.6735   -3.3096 C.2       1 <0>         0.5273
     16 O2         -8.1067    1.0181   -4.3777 O.2       1 <0>        -0.5434
     17 N3         -8.4263    0.0341   -2.4151 N.am      1 <0>        -0.8544
     18 C11         0.7294   -0.4993    1.2253 C.2       1 <0>         0.5004
     19 O3          1.1887    0.2957    2.0275 O.co2     1 <0>        -0.6910
     20 O4          0.8593   -1.6972    1.4116 O.co2     1 <0>        -0.6954
     21 H3          1.0019    1.9062    0.0035 H         1 <0>         0.0531
     22 H4         -0.5473    1.8886   -0.8728 H         1 <0>         0.0278
     23 H5         -0.5314    1.8804    0.9071 H         1 <0>         0.0530
     24 H6         -1.4194   -1.6182    0.0985 H         1 <0>         0.0726
     25 H7         -1.9717   -0.1085    0.8627 H         1 <0>         0.0596
     26 H8         -1.6284    0.3663   -1.9002 H         1 <0>         0.3916
     27 H9         -2.3198    0.9310   -3.2271 H         1 <0>         0.0812
     28 H10        -3.2852    0.1294   -4.4932 H         1 <0>         0.0705
     29 H11        -4.0591    2.6262   -2.9146 H         1 <0>         0.0703
     30 H12        -3.6339    2.5507   -4.6420 H         1 <0>         0.0807
     31 H13        -6.0882    2.6156   -4.3569 H         1 <0>         0.0732
     32 H14        -5.5810    1.0537   -5.0430 H         1 <0>         0.0723
     33 H15        -5.5893   -1.0231   -3.5885 H         1 <0>         0.0686
     34 H16        -5.8617   -0.8408   -1.8364 H         1 <0>         0.0979
     35 H17        -8.0585   -0.2414   -1.5609 H         1 <0>         0.4051
     36 H18        -9.3550   -0.1505   -2.6256 H         1 <0>         0.4011
@<TRIPOS>BOND
     1    1    2 1
     2    1   21 1
     3    1   22 1
     4    1   23 1
     5    2    3 1
     6    2    4 1
     7    2   18 1
     8    4    5 1
     9    4   24 1
    10    4   25 1
    11    5    6 am
    12    5   26 1
    13    6    7 2
    14    6    8 am
    15    8   14 1
    16    8    9 1
    17    9   10 1
    18    9   27 1
    19    9   28 1
    20   10   11 1
    21   10   29 1
    22   10   30 1
    23   11   12 1
    24   11   31 1
    25   11   32 1
    26   12   13 1
    27   12   14 1
    28   12   15 1
    29   14   33 1
    30   14   34 1
    31   15   16 2
    32   15   17 am
    33   17   35 1
    34   17   36 1
    35   18   19 2
    36   18   20 1
@<TRIPOS>MOLECULE
ZINC63010981
   39    40     0     0     0
SMALL
USER_CHARGES

@<TRIPOS>ATOM
      1 C1         -0.0187    1.5258    0.0104 C.3       1 <0>        -0.1446
      2 C2          0.0021   -0.0041    0.0020 C.3       1 <0>        -0.0927
      3 H1         -1.0205   -0.3814    0.0098 H         1 <0>         0.0626
      4 C3          0.7182   -0.4975   -1.2568 C.3       1 <0>        -0.1091
      5 C4          0.7390   -2.0273   -1.2652 C.3       1 <0>        -0.1144
      6 C5          1.4790   -2.5342   -0.0257 C.3       1 <0>        -0.1128
      7 C6          0.7628   -2.0407    1.2331 C.3       1 <0>         0.1125
      8 C7          0.7421   -0.5109    1.2415 C.3       1 <0>        -0.0987
      9 C8          1.4917   -2.5400    2.4540 C.2       1 <0>         0.5010
     10 O1          2.6566   -2.2306    2.6375 O.co2     1 <0>        -0.7013
     11 O2          0.9164   -3.2532    3.2583 O.co2     1 <0>        -0.6747
     12 N1         -0.6116   -2.5478    1.2435 N.am      1 <0>        -0.6967
     13 C9         -0.8399   -3.8761    1.2386 C.2       1 <0>         0.5652
     14 O3          0.0950   -4.6536    1.2255 O.2       1 <0>        -0.5182
     15 C10        -2.2239   -4.3867    1.2490 C.ar      1 <0>        -0.1430
     16 C11        -3.2995   -3.4942    1.2583 C.ar      1 <0>        -0.0489
     17 C12        -4.5900   -3.9727    1.2681 C.ar      1 <0>        -0.1835
     18 C13        -4.8257   -5.3440    1.2688 C.ar      1 <0>         0.2016
     19 C14        -3.7562   -6.2377    1.2601 C.ar      1 <0>         0.0067
     20 C15        -2.4622   -5.7643    1.2439 C.ar      1 <0>        -0.0475
     21 F1         -3.9883   -7.5686    1.2612 F         1 <0>        -0.1444
     22 N2         -6.1322   -5.8243    1.2788 N.pl3     1 <0>        -0.8700
     23 H2          1.0039    1.9031    0.0027 H         1 <0>         0.0539
     24 H3         -0.5459    1.8868   -0.8726 H         1 <0>         0.0488
     25 H4         -0.5289    1.8773    0.9072 H         1 <0>         0.0518
     26 H5          0.1910   -0.1364   -2.1398 H         1 <0>         0.0524
     27 H6          1.7408   -0.1202   -1.2645 H         1 <0>         0.0603
     28 H7         -0.2836   -2.4046   -1.2575 H         1 <0>         0.0554
     29 H8          1.2492   -2.3788   -2.1620 H         1 <0>         0.0522
     30 H9          1.4937   -3.6240   -0.0317 H         1 <0>         0.0762
     31 H10         2.5015   -2.1569   -0.0334 H         1 <0>         0.0679
     32 H11         1.7647   -0.1336    1.2338 H         1 <0>         0.0801
     33 H12         0.2319   -0.1594    2.1383 H         1 <0>         0.0578
     34 H13        -1.3573   -1.9276    1.2540 H         1 <0>         0.3813
     35 H14        -3.1180   -2.4295    1.2582 H         1 <0>         0.1300
     36 H15        -5.4209   -3.2828    1.2757 H         1 <0>         0.1324
     37 H16        -1.6332   -6.4565    1.2322 H         1 <0>         0.1474
     38 H17        -6.8772   -5.2032    1.2852 H         1 <0>         0.4017
     39 H18        -6.2975   -6.7801    1.2793 H         1 <0>         0.4015
@<TRIPOS>BOND
     1    1    2 1
     2    1   23 1
     3    1   24 1
     4    1   25 1
     5    2    3 1
     6    2    8 1
     7    2    4 1
     8    4    5 1
     9    4   26 1
    10    4   27 1
    11    5    6 1
    12    5   28 1
    13    5   29 1
    14    6    7 1
    15    6   30 1
    16    6   31 1
    17    7    8 1
    18    7    9 1
    19    7   12 1
    20    8   32 1
    21    8   33 1
    22    9   10 2
    23    9   11 1
    24   12   13 am
    25   12   34 1
    26   13   14 2
    27   13   15 1
    28   15   20 ar
    29   15   16 ar
    30   16   17 ar
    31   16   35 1
    32   17   18 ar
    33   17   36 1
    34   18   19 ar
    35   18   22 1
    36   19   20 ar
    37   19   21 1
    38   20   37 1
    39   22   38 1
    40   22   39 1
@<TRIPOS>MOLECULE
ZINC19439373
   33    33     0     0     0
SMALL
USER_CHARGES
6-[(2,6-dihydroxypyridine-4-carbonyl)amino]hexanoic acid
@<TRIPOS>ATOM
      1 C1         -1.3493    3.4635    0.0273 C.2       1 <0>        -0.2986
      2 C2         -1.3093    2.0669    0.0195 C.2       1 <0>         0.0120
      3 C3         -2.5204    1.3701    0.0156 C.2       1 <0>        -0.3323
      4 C4         -3.7095    2.0847    0.0311 C.2       1 <0>         0.4650
      5 N1         -3.7055    3.4073    0.0382 N.am      1 <0>        -0.5814
      6 C5         -2.5806    4.1028    0.0366 C.2       1 <0>         0.4638
      7 O1         -2.6314    5.4587    0.0447 O.2       1 <0>        -0.6891
      8 O2         -4.8915    1.4184    0.0391 O.3       1 <0>        -0.6908
      9 C6         -0.0162    1.3436    0.0155 C.2       1 <0>         0.5592
     10 O3          1.0277    1.9653    0.0139 O.2       1 <0>        -0.5453
     11 N2          0.0021   -0.0041    0.0080 N.am      1 <0>        -0.7346
     12 C7          1.2807   -0.7193   -0.0020 C.3       1 <0>         0.1217
     13 C8          1.0214   -2.2272   -0.0092 C.3       1 <0>        -0.1308
     14 C9          2.3567   -2.9741   -0.0196 C.3       1 <0>        -0.1158
     15 C10         2.0976   -4.4820   -0.0266 C.3       1 <0>        -0.0984
     16 C11         3.4328   -5.2289   -0.0372 C.3       1 <0>        -0.1581
     17 C12         3.1776   -6.7141   -0.0441 C.2       1 <0>         0.4579
     18 O4          2.0440   -7.1323   -0.0411 O.co2     1 <0>        -0.6417
     19 O5          4.2096   -7.5723   -0.0538 O.co2     1 <0>        -0.7838
     20 H1         -0.4980    3.9881    0.0261 H         1 <0>         0.1236
     21 H2         -2.5380    0.3703    0.0019 H         1 <0>         0.1197
     22 H3         -4.6564    3.9601    0.0457 H         1 <0>         0.4240
     23 H4         -0.9429   -0.5671    0.0094 H         1 <0>         0.4260
     24 H5          1.8495   -0.4407   -0.9013 H         1 <0>         0.0630
     25 H6          1.8581   -0.4507    0.8949 H         1 <0>         0.0630
     26 H7          0.4525   -2.5056    0.8901 H         1 <0>         0.0696
     27 H8          0.4440   -2.4957   -0.9061 H         1 <0>         0.0696
     28 H9          2.9256   -2.6956   -0.9190 H         1 <0>         0.0595
     29 H10         2.9341   -2.7055    0.8773 H         1 <0>         0.0595
     30 H11         1.5288   -4.7605    0.8727 H         1 <0>         0.0602
     31 H12         1.5201   -4.7506   -0.9235 H         1 <0>         0.0602
     32 H13         4.0016   -4.9504   -0.9366 H         1 <0>         0.0617
     33 H14         4.0103   -4.9603    0.8597 H         1 <0>         0.0617
@<TRIPOS>BOND
     1    1    2 2
     2    1   20 1
     3    1    6 1
     4    2    3 1
     5    2    9 1
     6    3    4 2
     7    3   21 1
     8    4    5 1
     9    4    8 1
    10    5   22 1
    11    5    6 am
    12    6    7 2
    13    9   10 2
    14    9   11 am
    15   11   12 1
    16   11   23 1
    17   12   13 1
    18   12   24 1
    19   12   25 1
    20   13   14 1
    21   13   26 1
    22   13   27 1
    23   14   15 1
    24   14   28 1
    25   14   29 1
    26   15   16 1
    27   15   30 1
    28   15   31 1
    29   16   17 1
    30   16   32 1
    31   16   33 1
    32   17   18 2
    33   17   19 1
@<TRIPOS>MOLECULE
ZINC39058199
   17    16     0     0     0
SMALL
USER_CHARGES

@<TRIPOS>ATOM
      1 C1         -0.0153    1.2759    0.0091 C.2       1 <0>        -0.0898
      2 N1          0.0021   -0.0041    0.0020 N.2       1 <0>        -0.1852
      3 N2          1.2247   -0.6880   -0.0133 N.pl3     1 <0>        -0.5905
      4 C2          1.2446   -2.1528   -0.0214 C.3       1 <0>         0.1396
      5 H1          0.3547   -2.5255   -0.5288 H         1 <0>         0.0705
      6 C3          2.4937   -2.6419   -0.7572 C.3       1 <0>        -0.1747
      7 C4          2.4141   -2.2363   -2.2064 C.2       1 <0>         0.4919
      8 O1          1.4478   -1.6137   -2.6130 O.co2     1 <0>        -0.6877
      9 O2          3.3159   -2.5307   -2.9723 O.co2     1 <0>        -0.7266
     10 C5          1.2650   -2.6627    1.3966 C.2       1 <0>         0.4828
     11 O3          1.2631   -1.8755    2.3276 O.co2     1 <0>        -0.7015
     12 O4          1.2833   -3.8625    1.6128 O.co2     1 <0>        -0.7150
     13 H2          0.9126    1.8286    0.0032 H         1 <0>         0.0674
     14 H3         -0.9578    1.8031    0.0164 H         1 <0>         0.1332
     15 H4          2.0581   -0.1916   -0.0186 H         1 <0>         0.3628
     16 H5          3.3798   -2.1977   -0.3038 H         1 <0>         0.0485
     17 H6          2.5550   -3.7279   -0.6867 H         1 <0>         0.0745
@<TRIPOS>BOND
     1    1    2 2
     2    1   13 1
     3    1   14 1
     4    2    3 1
     5    3    4 1
     6    3   15 1
     7    4    5 1
     8    4    6 1
     9    4   10 1
    10    6    7 1
    11    6   16 1
    12    6   17 1
    13    7    8 2
    14    7    9 1
    15   10   11 2
    16   10   12 1
@<TRIPOS>MOLECULE
ZINC40726019
   34    34     0     0     0
SMALL
USER_CHARGES

@<TRIPOS>ATOM
      1 C1         -0.0187    1.5258    0.0104 C.3       1 <0>        -0.1381
      2 C2          0.0021   -0.0041    0.0020 C.3       1 <0>        -0.1064
      3 H1         -1.0124   -0.4022    0.0220 H         1 <0>         0.0812
      4 C3          0.7762   -0.5358   -1.2330 C.3       1 <0>        -0.1251
      5 C4          1.2615   -1.9165   -0.7252 C.3       1 <0>         0.1000
      6 N1          1.5928   -1.7010    0.6951 N.am      1 <0>        -0.6448
      7 C5          0.8247   -0.5455    1.1902 C.3       1 <0>         0.1353
      8 C6          2.4531   -2.4412    1.4220 C.2       1 <0>         0.7252
      9 O1          2.6500   -2.1712    2.5911 O.2       1 <0>        -0.6006
     10 N2          3.0951   -3.4807    0.8531 N.am      1 <0>        -0.6977
     11 C7          4.0302   -4.2854    1.6433 C.3       1 <0>         0.0910
     12 H2          4.5503   -3.6438    2.3547 H         1 <0>         0.0753
     13 C8          5.0491   -4.9447    0.7116 C.3       1 <0>        -0.0804
     14 C9          5.9057   -3.8652    0.0468 C.3       1 <0>        -0.1755
     15 C10         6.9092   -4.5146   -0.8708 C.2       1 <0>         0.4908
     16 O2          6.9369   -5.7284   -0.9827 O.co2     1 <0>        -0.6975
     17 O3          7.6935   -3.8263   -1.5014 O.co2     1 <0>        -0.7209
     18 C11         3.2696   -5.3505    2.3902 C.2       1 <0>         0.4958
     19 O4          2.0935   -5.5500    2.1380 O.co2     1 <0>        -0.6995
     20 O5          3.8302   -6.0128    3.2466 O.co2     1 <0>        -0.7040
     21 H3          1.0039    1.9031    0.0027 H         1 <0>         0.0576
     22 H4         -0.5459    1.8868   -0.8726 H         1 <0>         0.0553
     23 H5         -0.5289    1.8773    0.9072 H         1 <0>         0.0552
     24 H6          0.1137   -0.6461   -2.0916 H         1 <0>         0.0776
     25 H7          1.6201    0.1108   -1.4733 H         1 <0>         0.0751
     26 H8          0.4671   -2.6567   -0.8213 H         1 <0>         0.0635
     27 H9          2.1461   -2.2342   -1.2771 H         1 <0>         0.0728
     28 H10         1.5062    0.2249    1.5509 H         1 <0>         0.0602
     29 H11         0.1560   -0.8571    1.9926 H         1 <0>         0.0589
     30 H12         2.9380   -3.6961   -0.0795 H         1 <0>         0.3859
     31 H13         5.6893   -5.6127    1.2878 H         1 <0>         0.0768
     32 H14         4.5247   -5.5155   -0.0547 H         1 <0>         0.0554
     33 H15         5.2655   -3.1972   -0.5294 H         1 <0>         0.0495
     34 H16         6.4301   -3.2944    0.8131 H         1 <0>         0.0521
@<TRIPOS>BOND
     1    1    2 1
     2    1   21 1
     3    1   22 1
     4    1   23 1
     5    2    3 1
     6    2    7 1
     7    2    4 1
     8    4    5 1
     9    4   24 1
    10    4   25 1
    11    5    6 1
    12    5   26 1
    13    5   27 1
    14    6    7 1
    15    6    8 am
    16    7   28 1
    17    7   29 1
    18    8    9 2
    19    8   10 am
    20   10   11 1
    21   10   30 1
    22   11   12 1
    23   11   13 1
    24   11   18 1
    25   13   14 1
    26   13   31 1
    27   13   32 1
    28   14   15 1
    29   14   33 1
    30   14   34 1
    31   15   16 2
    32   15   17 1
    33   18   19 2
    34   18   20 1
@<TRIPOS>MOLECULE
ZINC49148058
   34    34     0     0     0
SMALL
USER_CHARGES

@<TRIPOS>ATOM
      1 C1         -0.0162    1.3409    0.0094 C.2       1 <0>        -0.2143
      2 C2          1.3313    1.7689   -0.0012 C.2       1 <0>        -0.2115
      3 C3          2.0923    0.6599   -0.0144 C.2       1 <0>         0.0046
      4 O1          1.2819   -0.4111   -0.0124 O.3       1 <0>        -0.1738
      5 C4          0.0021   -0.0041    0.0020 C.2       1 <0>        -0.0481
      6 C5          3.5989    0.6249   -0.0294 C.3       1 <0>        -0.0533
      7 C6          4.1229    0.6057    1.4079 C.3       1 <0>         0.1486
      8 N1          5.5874    0.5717    1.3933 N.am      1 <0>        -0.7576
      9 C7          6.2726    0.5501    2.5537 C.2       1 <0>         0.7077
     10 O2          5.6752    0.5587    3.6127 O.2       1 <0>        -0.6020
     11 N2          7.6199    0.5188    2.5403 N.am      1 <0>        -0.6997
     12 C8          8.3647    0.4953    3.8017 C.3       1 <0>         0.0915
     13 H1          7.8385    1.0935    4.5455 H         1 <0>         0.0756
     14 C9          9.7635    1.0737    3.5788 C.3       1 <0>        -0.0808
     15 C10         9.6500    2.5526    3.2033 C.3       1 <0>        -0.1757
     16 C11        11.0278    3.1223    2.9839 C.2       1 <0>         0.4904
     17 O3         12.0096    2.4114    3.1156 O.co2     1 <0>        -0.6977
     18 O4         11.1608    4.2941    2.6746 O.co2     1 <0>        -0.7211
     19 C12         8.4806   -0.9256    4.2902 C.2       1 <0>         0.4954
     20 O5          8.1519   -1.8485    3.5644 O.co2     1 <0>        -0.6997
     21 O6          8.9030   -1.1523    5.4112 O.co2     1 <0>        -0.7040
     22 H2         -0.8920    1.9726    0.0252 H         1 <0>         0.1455
     23 H3          1.6822    2.7903    0.0004 H         1 <0>         0.1488
     24 H4         -0.8653   -0.6475    0.0072 H         1 <0>         0.1996
     25 H5          3.9364   -0.2706   -0.5512 H         1 <0>         0.0889
     26 H6          3.9777    1.5089   -0.5424 H         1 <0>         0.1006
     27 H7          3.7854    1.5012    1.9297 H         1 <0>         0.0649
     28 H8          3.7441   -0.2783    1.9210 H         1 <0>         0.0644
     29 H9          6.0640    0.5648    0.5485 H         1 <0>         0.3912
     30 H10         8.0965    0.5119    1.6955 H         1 <0>         0.3868
     31 H11        10.3475    0.9750    4.4939 H         1 <0>         0.0763
     32 H12        10.2569    0.5310    2.7726 H         1 <0>         0.0559
     33 H13         9.0661    2.6513    2.2883 H         1 <0>         0.0506
     34 H14         9.1566    3.0953    4.0096 H         1 <0>         0.0520
@<TRIPOS>BOND
     1    1    5 2
     2    1    2 1
     3    1   22 1
     4    2    3 2
     5    2   23 1
     6    3    4 1
     7    3    6 1
     8    4    5 1
     9    5   24 1
    10    6    7 1
    11    6   25 1
    12    6   26 1
    13    7    8 1
    14    7   27 1
    15    7   28 1
    16    8    9 am
    17    8   29 1
    18    9   10 2
    19    9   11 am
    20   11   12 1
    21   11   30 1
    22   12   13 1
    23   12   14 1
    24   12   19 1
    25   14   15 1
    26   14   31 1
    27   14   32 1
    28   15   16 1
    29   15   33 1
    30   15   34 1
    31   16   17 2
    32   16   18 1
    33   19   20 2
    34   19   21 1
@<TRIPOS>MOLECULE
ZINC13816642
   13    13     0     0     0
SMALL
USER_CHARGES

@<TRIPOS>ATOM
      1 C1         -0.0156    1.3008    0.0092 C.2       1 <0>        -0.0877
      2 N1          0.0021   -0.0041    0.0020 N.2       1 <0>        -0.1464
      3 N2         -1.1062   -0.6642    0.0091 N.pl3     1 <0>        -0.4858
      4 C2         -1.0874   -2.0490    0.0014 C.2       1 <0>         0.3136
      5 N3         -0.0090   -2.8308   -0.0072 N.2       1 <0>        -0.3710
      6 N4         -0.4166   -4.0539   -0.0117 N.2       1 <0>        -0.1955
      7 N5         -1.7036   -4.0714   -0.0063 N.2       1 <0>        -0.1968
      8 N6         -2.1442   -2.8598    0.0072 N.2       1 <0>        -0.4172
      9 C3          1.2006    2.0253    0.0015 C.2       1 <0>         0.5392
     10 O1          2.2697    1.4272   -0.0119 O.co2     1 <0>        -0.6836
     11 O2          1.1840    3.2502    0.0082 O.co2     1 <0>        -0.7194
     12 H1         -0.9582    1.8281    0.0165 H         1 <0>         0.0792
     13 H2         -1.9527   -0.1907    0.0197 H         1 <0>         0.3714
@<TRIPOS>BOND
     1    1    2 2
     2    1    9 1
     3    1   12 1
     4    2    3 1
     5    3    4 1
     6    3   13 1
     7    4    8 2
     8    4    5 1
     9    5    6 1
    10    6    7 2
    11    7    8 1
    12    9   10 2
    13    9   11 1
@<TRIPOS>MOLECULE
ZINC01581315
   18    19     0     0     0
SMALL
USER_CHARGES
2,4-dioxo-1,5-dihydropyrrolo[5,4-e]pyrimidine-6-carboxylic acid
@<TRIPOS>ATOM
      1 C1          3.6701    1.9388   -0.0229 C.2       1 <0>        -0.1847
      2 C2          2.3558    1.4598   -0.0126 C.2       1 <0>         0.1121
      3 C3          2.4233    0.0700   -0.0207 C.2       1 <0>        -0.1192
      4 C4          1.1671   -0.6856   -0.0127 C.2       1 <0>         0.5929
      5 O1          1.1745   -1.9026   -0.0190 O.2       1 <0>        -0.5189
      6 N1          0.0021   -0.0041    0.0020 N.am      1 <0>        -0.6559
      7 H1         -0.8619   -0.5075    0.0075 H         1 <0>         0.4396
      8 C5         -0.0161    1.3388    0.0094 C.2       1 <0>         0.7089
      9 O2         -1.0892    1.9107    0.0175 O.2       1 <0>        -0.5655
     10 N2          1.1100    2.0733    0.0026 N.am      1 <0>        -0.6217
     11 H2          1.0499    3.0715    0.0085 H         1 <0>         0.4379
     12 N3          3.7435   -0.2905   -0.0356 N.pl3     1 <0>        -0.4754
     13 H3          4.0812   -1.1998   -0.0433 H         1 <0>         0.4334
     14 C6          4.5093    0.8461   -0.0371 C.2       1 <0>         0.0897
     15 C7          5.9810    0.8918   -0.0513 C.2       1 <0>         0.5129
     16 O3          6.5556    1.9625   -0.0513 O.co2     1 <0>        -0.6020
     17 H4          3.9718    2.9758   -0.0207 H         1 <0>         0.1586
     18 O4          6.6908   -0.2542   -0.0645 O.co2     1 <0>        -0.7427
@<TRIPOS>BOND
     1    1   14 2
     2    1    2 1
     3    1   17 1
     4    2   10 1
     5    2    3 2
     6    3    4 1
     7    3   12 1
     8    4    5 2
     9    4    6 am
    10    6    7 1
    11    6    8 am
    12    8    9 2
    13    8   10 am
    14   10   11 1
    15   12   13 1
    16   12   14 1
    17   14   15 1
    18   15   16 2
    19   15   18 1
@<TRIPOS>MOLECULE
ZINC25176301
   33    34     0     0     0
SMALL
USER_CHARGES

@<TRIPOS>ATOM
      1 C1         -0.5481    0.1720    0.4607 C.3       1 <0>        -0.6559
      2 S1         -0.3840   -1.4850   -0.2590 S.o2      1 <0>         2.5992
      3 O1          0.3155   -2.3399    0.6350 O.2       1 <0>        -0.9513
      4 O2         -1.6172   -1.8927   -0.8353 O.2       1 <0>        -0.8930
      5 N1          0.6400   -1.2905   -1.5459 N.pl3     1 <0>        -0.6798
      6 C2          2.0009   -1.5037   -1.5078 C.cat     1 <0>         0.4426
      7 N2          2.6982   -1.8865   -0.4732 N.pl3     1 <0>        -0.7603
      8 C3          2.5217   -1.2166   -2.8634 C.2       1 <0>        -0.0179
      9 N3          3.7666   -1.2931   -3.2704 N.2       1 <0>        -0.0520
     10 N4          4.7188   -1.4303   -2.4110 N.pl3     1 <0>        -0.4652
     11 C4          6.0219   -1.6434   -2.8456 C.ar      1 <0>         0.1134
     12 C5          6.2985   -1.7028   -4.2094 C.ar      1 <0>        -0.1275
     13 C6          7.5826   -1.9128   -4.6416 C.ar      1 <0>        -0.0609
     14 C7          8.6159   -2.0671   -3.7107 C.ar      1 <0>        -0.1292
     15 C8          8.3344   -2.0064   -2.3413 C.ar      1 <0>        -0.0611
     16 C9          7.0489   -1.7912   -1.9163 C.ar      1 <0>        -0.1557
     17 C10         9.9960   -2.2933   -4.1711 C.2       1 <0>         0.5178
     18 O3         10.2405   -2.3465   -5.3686 O.co2     1 <0>        -0.6810
     19 O4         10.8984   -2.4280   -3.3560 O.co2     1 <0>        -0.6848
     20 C11         1.3384   -0.8252   -3.6621 C.2       1 <0>         0.3977
     21 N5          1.3301   -0.4849   -4.9220 N.2       1 <0>        -0.7326
     22 N6          0.2466   -0.8933   -2.8241 N.2       1 <0>        -0.4847
     23 H1          0.4320    0.5299    0.7759 H         1 <0>         0.1306
     24 H2         -0.9612    0.8523   -0.2840 H         1 <0>         0.1472
     25 H3         -1.2138    0.1293    1.3228 H         1 <0>         0.1439
     26 H4          2.2801   -1.9403    0.4004 H         1 <0>         0.4321
     27 H5          4.5256   -1.3847   -1.4616 H         1 <0>         0.3732
     28 H6          5.5005   -1.5836   -4.9273 H         1 <0>         0.1389
     29 H7          7.7962   -1.9595   -5.6992 H         1 <0>         0.1394
     30 H8          9.1295   -2.1254   -1.6202 H         1 <0>         0.1385
     31 H9          6.8315   -1.7405   -0.8596 H         1 <0>         0.1209
     32 H10         0.4955   -0.2442   -5.3538 H         1 <0>         0.3344
     33 H11         3.6345   -2.1173   -0.5779 H         1 <0>         0.4232
@<TRIPOS>BOND
     1    1    2 1
     2    1   23 1
     3    1   24 1
     4    1   25 1
     5    2    3 2
     6    2    4 2
     7    2    5 1
     8    5   22 1
     9    5    6 1
    10    6    7 2
    11    6    8 1
    12    7   26 1
    13    7   33 1
    14    8    9 2
    15    8   20 1
    16    9   10 1
    17   10   11 1
    18   10   27 1
    19   11   16 ar
    20   11   12 ar
    21   12   13 ar
    22   12   28 1
    23   13   14 ar
    24   13   29 1
    25   14   15 ar
    26   14   17 1
    27   15   16 ar
    28   15   30 1
    29   16   31 1
    30   17   18 2
    31   17   19 1
    32   20   21 2
    33   20   22 1
    34   21   32 1
@<TRIPOS>MOLECULE
ZINC39084775
   26    27     0     0     0
SMALL
USER_CHARGES

@<TRIPOS>ATOM
      1 C1          0.0712    1.7022   -0.0610 C.3       1 <0>        -0.0999
      2 C2          1.6003    1.9464   -0.0294 C.3       1 <0>        -0.1122
      3 C3          2.1399    0.8466    0.9078 C.3       1 <0>        -0.0261
      4 C4          1.1056   -0.2930    0.8924 C.3       1 <0>        -0.0903
      5 H1          1.5220   -1.2827    0.7049 H         1 <0>         0.1070
      6 C5         -0.0302    0.1586   -0.0575 C.3       1 <0>        -0.1167
      7 H2         -0.0530   -0.3035   -1.0444 H         1 <0>         0.0826
      8 C6         -1.0192   -0.3853    0.9829 C.3       1 <0>        -0.1128
      9 C7          0.0966   -0.2042    2.0500 C.3       1 <0>        -0.1567
     10 H3          0.0799    0.7699    2.5388 H         1 <0>         0.0999
     11 C8          0.1999   -1.3469    3.0270 C.2       1 <0>         0.5066
     12 O1          0.0890   -1.1383    4.2231 O.co2     1 <0>        -0.6859
     13 O2          0.3944   -2.4801    2.6213 O.co2     1 <0>        -0.7121
     14 C9          2.2901    1.3883    2.3060 C.2       1 <0>         0.5055
     15 O3          1.7538    2.4391    2.6136 O.co2     1 <0>        -0.6472
     16 O4          2.9479    0.7756    3.1297 O.co2     1 <0>        -0.6532
     17 N1          3.4347    0.3573    0.4157 N.4       1 <0>        -0.6096
     18 H4         -0.4052    2.1223    0.8249 H         1 <0>         0.0864
     19 H5         -0.3671    2.1158   -0.9692 H         1 <0>         0.0694
     20 H6          2.0245    1.8388   -1.0277 H         1 <0>         0.0612
     21 H7          1.8205    2.9342    0.3752 H         1 <0>         0.0986
     22 H8         -1.8863    0.2570    1.1365 H         1 <0>         0.0611
     23 H9         -1.2890   -1.4291    0.8229 H         1 <0>         0.0814
     24 H10         4.1003    1.1156    0.4088 H         1 <0>         0.4189
     25 H11         3.7685   -0.3778    1.0209 H         1 <0>         0.4351
     26 H12         3.3246   -0.0021   -0.5207 H         1 <0>         0.4089
@<TRIPOS>BOND
     1    1    6 1
     2    1    2 1
     3    1   18 1
     4    1   19 1
     5    2    3 1
     6    2   20 1
     7    2   21 1
     8    3    4 1
     9    3   14 1
    10    3   17 1
    11    4    5 1
    12    4    9 1
    13    4    6 1
    14    6    7 1
    15    6    8 1
    16    8    9 1
    17    8   22 1
    18    8   23 1
    19    9   10 1
    20    9   11 1
    21   11   12 2
    22   11   13 1
    23   14   15 2
    24   14   16 1
    25   17   24 1
    26   17   25 1
    27   17   26 1
@<TRIPOS>MOLECULE
ZINC42439586
   43    44     0     0     0
SMALL
USER_CHARGES

@<TRIPOS>ATOM
      1 C1         -0.0172    1.5255    0.0091 C.3       1 <0>        -0.1341
      2 C2         -0.0007   -0.0044    0.0042 C.3       1 <0>         0.1649
      3 H1          0.4275   -0.3622   -0.9321 H         1 <0>         0.0606
      4 C3         -1.4307   -0.5338    0.1505 C.3       1 <0>        -0.1337
      5 C4         -1.3949   -2.0579    0.2847 C.3       1 <0>        -0.0943
      6 C5         -0.6067   -2.4428    1.5389 C.3       1 <0>        -0.1273
      7 H2         -1.0736   -1.9920    2.4146 H         1 <0>         0.1075
      8 C6          0.8327   -1.9350    1.4084 C.3       1 <0>         0.1307
      9 N1          0.8048   -0.4918    1.1322 N.am      1 <0>        -0.6328
     10 C7          1.5016    0.3685    1.9009 C.2       1 <0>         0.7197
     11 O1          1.3958    1.5664    1.7219 O.2       1 <0>        -0.5537
     12 N2          2.3155   -0.0991    2.8680 N.am      1 <0>        -0.7171
     13 C8          2.9845    0.8346    3.7773 C.3       1 <0>         0.1204
     14 C9          3.9917    1.7192    3.0012 C.3       1 <0>        -0.1121
     15 C10         5.2269    0.7943    2.8678 C.3       1 <0>        -0.1213
     16 C11         5.2836    0.0424    4.2136 C.3       1 <0>        -0.1201
     17 C12         3.8578    0.0680    4.7919 C.3       1 <0>        -0.1108
     18 C13         1.9706    1.6890    4.4936 C.2       1 <0>         0.5041
     19 O2          0.7807    1.5308    4.2805 O.co2     1 <0>        -0.6752
     20 O3          2.3404    2.5385    5.2862 O.co2     1 <0>        -0.7015
     21 C14        -0.6001   -3.9424    1.6883 C.2       1 <0>         0.5275
     22 O4         -1.1697   -4.6356    0.8722 O.2       1 <0>        -0.5443
     23 N3          0.0387   -4.5131    2.7288 N.am      1 <0>        -0.8557
     24 H3          0.9944    1.9003   -0.1469 H         1 <0>         0.0715
     25 H4         -0.6650    1.8844   -0.7907 H         1 <0>         0.0312
     26 H5         -0.3927    1.8818    0.9683 H         1 <0>         0.0811
     27 H6         -1.8898   -0.1010    1.0393 H         1 <0>         0.0721
     28 H7         -2.0119   -0.2598   -0.7300 H         1 <0>         0.0750
     29 H8         -2.4128   -2.4395    0.3642 H         1 <0>         0.0702
     30 H9         -0.9134   -2.4886   -0.5932 H         1 <0>         0.0686
     31 H10         1.3707   -2.1189    2.3383 H         1 <0>         0.0775
     32 H11         1.3297   -2.4523    0.5878 H         1 <0>         0.0657
     33 H12         2.4584   -1.0540    2.9620 H         1 <0>         0.3746
     34 H13         3.5982    1.9822    2.0193 H         1 <0>         0.0717
     35 H14         4.2392    2.6144    3.5718 H         1 <0>         0.0757
     36 H15         5.0913    0.0931    2.0445 H         1 <0>         0.0546
     37 H16         6.1316    1.3847    2.7223 H         1 <0>         0.0559
     38 H17         5.6028   -0.9873    4.0529 H         1 <0>         0.0532
     39 H18         5.9714    0.5451    4.8936 H         1 <0>         0.0603
     40 H19         3.8537    0.5832    5.7524 H         1 <0>         0.0824
     41 H20         3.4852   -0.9493    4.9117 H         1 <0>         0.0539
     42 H21         0.4942   -3.9587    3.3815 H         1 <0>         0.4037
     43 H22         0.0429   -5.4783    2.8249 H         1 <0>         0.3998
@<TRIPOS>BOND
     1    1    2 1
     2    1   24 1
     3    1   25 1
     4    1   26 1
     5    2    3 1
     6    2    9 1
     7    2    4 1
     8    4    5 1
     9    4   27 1
    10    4   28 1
    11    5    6 1
    12    5   29 1
    13    5   30 1
    14    6    7 1
    15    6    8 1
    16    6   21 1
    17    8    9 1
    18    8   31 1
    19    8   32 1
    20    9   10 am
    21   10   11 2
    22   10   12 am
    23   12   13 1
    24   12   33 1
    25   13   17 1
    26   13   14 1
    27   13   18 1
    28   14   15 1
    29   14   34 1
    30   14   35 1
    31   15   16 1
    32   15   36 1
    33   15   37 1
    34   16   17 1
    35   16   38 1
    36   16   39 1
    37   17   40 1
    38   17   41 1
    39   18   19 2
    40   18   20 1
    41   21   22 2
    42   21   23 am
    43   23   42 1
    44   23   43 1
@<TRIPOS>MOLECULE
ZINC61712910
   28    28     0     0     0
SMALL
USER_CHARGES

@<TRIPOS>ATOM
      1 C1         -0.0190    1.5473    0.0105 C.3       1 <0>        -0.1231
      2 C2          1.4942    1.8790   -0.0021 C.3       1 <0>         0.1011
      3 N1          2.1145    0.8435    0.8443 N.am      1 <0>        -0.6393
      4 C3          1.2394   -0.3377    0.8619 C.3       1 <0>         0.0980
      5 C4          0.0021   -0.0041    0.0020 C.3       1 <0>         0.0921
      6 H1          0.1243   -0.3825   -1.0128 H         1 <0>         0.0740
      7 O1         -1.1852   -0.5291    0.5993 O.3       1 <0>        -0.5567
      8 C5          3.2897    0.9602    1.4938 C.2       1 <0>         0.7217
      9 O2          3.7068    0.0372    2.1664 O.2       1 <0>        -0.5906
     10 N2          4.0026    2.0999    1.3976 N.am      1 <0>        -0.7030
     11 C6          5.2800    2.2267    2.1036 C.3       1 <0>         0.0882
     12 H2          5.7880    1.2624    2.1115 H         1 <0>         0.0925
     13 C7          6.1562    3.2590    1.3911 C.3       1 <0>         0.0867
     14 O3          5.5444    4.5472    1.4822 O.3       1 <0>        -0.5517
     15 C8          5.0286    2.6737    3.5207 C.2       1 <0>         0.4988
     16 O4          5.7921    2.3384    4.4101 O.co2     1 <0>        -0.7026
     17 O5          4.0617    3.3706    3.7776 O.co2     1 <0>        -0.6784
     18 H3         -0.4945    1.9266    0.9150 H         1 <0>         0.0876
     19 H4         -0.5117    1.9363   -0.8806 H         1 <0>         0.0871
     20 H5          1.8861    1.8237   -1.0177 H         1 <0>         0.0659
     21 H6          1.6691    2.8687    0.4197 H         1 <0>         0.0814
     22 H7          1.7644   -1.1944    0.4394 H         1 <0>         0.0646
     23 H8          0.9321   -0.5562    1.8846 H         1 <0>         0.0732
     24 H9         -1.2215   -1.4952    0.6188 H         1 <0>         0.3802
     25 H10         3.6698    2.8363    0.8610 H         1 <0>         0.3925
     26 H11         7.1385    3.2891    1.8625 H         1 <0>         0.0578
     27 H12         6.2647    2.9816    0.3426 H         1 <0>         0.0378
     28 H13         6.0463    5.2523    1.0510 H         1 <0>         0.3641
@<TRIPOS>BOND
     1    1    5 1
     2    1    2 1
     3    1   18 1
     4    1   19 1
     5    2    3 1
     6    2   20 1
     7    2   21 1
     8    3    4 1
     9    3    8 am
    10    4    5 1
    11    4   22 1
    12    4   23 1
    13    5    6 1
    14    5    7 1
    15    7   24 1
    16    8    9 2
    17    8   10 am
    18   10   11 1
    19   10   25 1
    20   11   12 1
    21   11   13 1
    22   11   15 1
    23   13   14 1
    24   13   26 1
    25   13   27 1
    26   14   28 1
    27   15   16 2
    28   15   17 1
@<TRIPOS>MOLECULE
ZINC28632555
   33    34     0     0     0
SMALL
USER_CHARGES
1-[4-(2-hydroxyethyl)piperazin-1-yl]-2-(tetrazol-1-yl)ethanone
@<TRIPOS>ATOM
      1 C1          0.1653    0.7179    2.2984 C.2       1 <0>         0.1605
      2 N1         -0.2502    1.5056    3.2602 N.2       1 <0>        -0.3032
      3 N2         -0.2675    2.7117    2.8072 N.2       1 <0>        -0.0738
      4 N3          0.1311    2.7144    1.5831 N.2       1 <0>        -0.0636
      5 N4          0.4104    1.5042    1.2339 N.pl3     1 <0>        -0.3042
      6 C2          0.8970    1.0672   -0.0771 C.3       1 <0>         0.0940
      7 C3         -0.0528    1.5383   -1.1480 C.2       1 <0>         0.5041
      8 O1         -1.0391    2.1763   -0.8460 O.2       1 <0>        -0.5073
      9 N5          0.1937    1.2507   -2.4414 N.am      1 <0>        -0.6085
     10 C4          1.3869    0.4835   -2.8300 C.3       1 <0>         0.1049
     11 C5          0.9404   -0.6785   -3.7315 C.3       1 <0>         0.0397
     12 N6          0.1521   -0.1474   -4.8516 N.3       1 <0>        -0.5272
     13 C6         -1.0807    0.4959   -4.3779 C.3       1 <0>         0.0388
     14 C7         -0.7202    1.7008   -3.5023 C.3       1 <0>         0.1170
     15 C8         -0.1466   -1.2006   -5.8311 C.3       1 <0>         0.0529
     16 C9         -0.5068   -0.5612   -7.1736 C.3       1 <0>         0.0911
     17 O2          0.6291    0.1359   -7.6892 O.3       1 <0>        -0.5888
     18 H1          0.2892   -0.3536    2.3508 H         1 <0>         0.2357
     19 H2          1.8947    1.4933   -0.2586 H         1 <0>         0.1391
     20 H3          0.9579   -0.0309   -0.0982 H         1 <0>         0.1446
     21 H4          2.0824    1.1385   -3.3753 H         1 <0>         0.0899
     22 H5          1.8815    0.0931   -1.9284 H         1 <0>         0.0880
     23 H6          1.8262   -1.2025   -4.1199 H         1 <0>         0.0944
     24 H7          0.3259   -1.3800   -3.1481 H         1 <0>         0.0400
     25 H8         -1.6735    0.8327   -5.2411 H         1 <0>         0.0916
     26 H9         -1.6673   -0.2245   -3.7889 H         1 <0>         0.0396
     27 H10        -1.6301    2.1206   -3.0487 H         1 <0>         0.0996
     28 H11        -0.2246    2.4717   -4.1106 H         1 <0>         0.0829
     29 H12         0.7358   -1.8452   -5.9570 H         1 <0>         0.0843
     30 H13        -0.9937   -1.8044   -5.4735 H         1 <0>         0.0527
     31 H14        -0.8093   -1.3450   -7.8836 H         1 <0>         0.0451
     32 H15        -1.3376    0.1457   -7.0319 H         1 <0>         0.0408
     33 H16         0.5607    0.6622   -8.6527 H         1 <0>         0.4054
@<TRIPOS>BOND
     1    1    5 1
     2    1    2 2
     3    1   18 1
     4    2    3 1
     5    3    4 2
     6    4    5 1
     7    5    6 1
     8    6    7 1
     9    6   19 1
    10    6   20 1
    11    7    8 2
    12    7    9 am
    13    9   14 1
    14    9   10 1
    15   10   11 1
    16   10   21 1
    17   10   22 1
    18   11   12 1
    19   11   23 1
    20   11   24 1
    21   12   13 1
    22   12   15 1
    23   13   14 1
    24   13   25 1
    25   13   26 1
    26   14   27 1
    27   14   28 1
    28   15   16 1
    29   15   29 1
    30   15   30 1
    31   16   17 1
    32   16   31 1
    33   16   32 1
    34   17   33 1
@<TRIPOS>MOLECULE
ZINC37598181
   34    34     0     0     0
SMALL
USER_CHARGES

@<TRIPOS>ATOM
      1 C1         -0.8648    1.9662   -0.4391 C.3       1 <0>         0.0613
      2 N1         -0.7352    0.5264   -0.2013 N.am      1 <0>        -0.6004
      3 C2         -0.8945   -0.0096    1.1528 C.3       1 <0>         0.1182
      4 C3         -2.3640   -0.3617    1.3924 C.3       1 <0>        -0.0391
      5 C4         -2.5240   -0.9002    2.7529 C.1       1 <0>         0.2009
      6 N2         -2.6474   -1.3159    3.8030 N.1       1 <0>        -0.4180
      7 C5         -0.4696   -0.3050   -1.2283 C.2       1 <0>         0.5119
      8 O1         -0.3623   -1.4969   -1.0314 O.2       1 <0>        -0.5209
      9 C6         -0.3058    0.2464   -2.6212 C.3       1 <0>        -0.0233
     10 N3         -0.0242   -0.8536   -3.5532 N.4       1 <0>        -0.3212
     11 C7          0.2535   -0.3057   -4.8877 C.3       1 <0>        -0.0829
     12 C8          1.5398    0.4786   -4.8509 C.2       1 <0>         0.4852
     13 O2          2.2235    0.4813   -3.8414 O.co2     1 <0>        -0.6740
     14 O3          1.8967    1.1104   -5.8307 O.co2     1 <0>        -0.6355
     15 C9         -1.1887   -1.7464   -3.6231 C.3       1 <0>        -0.0762
     16 C10        -1.0046   -3.1867   -3.1409 C.3       1 <0>        -0.1296
     17 C11        -1.1407   -2.8921   -4.6360 C.3       1 <0>        -0.1657
     18 H1          0.1105    2.4412   -0.3330 H         1 <0>         0.0757
     19 H2         -1.2435    2.1353   -1.4472 H         1 <0>         0.0775
     20 H3         -1.5578    2.3933    0.2858 H         1 <0>         0.0872
     21 H4         -0.2835   -0.9055    1.2631 H         1 <0>         0.1004
     22 H5         -0.5770    0.7384    1.8793 H         1 <0>         0.0975
     23 H6         -2.9749    0.5342    1.2821 H         1 <0>         0.1121
     24 H7         -2.6815   -1.1097    0.6659 H         1 <0>         0.1115
     25 H8         -1.2235    0.7517   -2.9221 H         1 <0>         0.1443
     26 H9          0.5214    0.9560   -2.6361 H         1 <0>         0.1763
     27 H10         0.3462   -1.1224   -5.6036 H         1 <0>         0.1285
     28 H11        -0.5635    0.3501   -5.1884 H         1 <0>         0.1255
     29 H12        -2.1545   -1.2744   -3.4425 H         1 <0>         0.1619
     30 H13        -0.0194   -3.4718   -2.7717 H         1 <0>         0.1179
     31 H14        -1.8493   -3.6625   -2.6427 H         1 <0>         0.1224
     32 H15        -2.0750   -3.1741   -5.1215 H         1 <0>         0.1260
     33 H16        -0.2451   -2.9834   -5.2506 H         1 <0>         0.1159
     34 H17         0.7782   -1.3722   -3.2289 H         1 <0>         0.4290
@<TRIPOS>BOND
     1    1    2 1
     2    1   18 1
     3    1   19 1
     4    1   20 1
     5    2    3 1
     6    2    7 am
     7    3    4 1
     8    3   21 1
     9    3   22 1
    10    4    5 1
    11    4   23 1
    12    4   24 1
    13    5    6 3
    14    7    8 2
    15    7    9 1
    16    9   10 1
    17    9   25 1
    18    9   26 1
    19   10   11 1
    20   10   15 1
    21   10   34 1
    22   11   12 1
    23   11   27 1
    24   11   28 1
    25   12   13 2
    26   12   14 1
    27   15   17 1
    28   15   16 1
    29   15   29 1
    30   16   17 1
    31   16   30 1
    32   16   31 1
    33   17   32 1
    34   17   33 1
@<TRIPOS>MOLECULE
ZINC44938261
   37    37     0     0     0
SMALL
USER_CHARGES

@<TRIPOS>ATOM
      1 C1         -0.0393    1.3928   -0.3534 C.3       1 <0>         0.0279
      2 N1         -0.0205   -0.0596   -0.1630 N.am      1 <0>        -0.5326
      3 C2         -1.1846   -0.7215    0.1181 C.2       1 <0>         0.1950
      4 C3         -1.1672   -2.0602    0.2931 C.2       1 <0>        -0.2573
      5 C4          0.0621   -2.7536    0.1813 C.2       1 <0>         0.5481
      6 O1          0.1027   -3.9610    0.3346 O.2       1 <0>        -0.5036
      7 N2          1.1873   -2.0647   -0.0969 N.am      1 <0>        -0.5562
      8 C5          1.1404   -0.7309   -0.2717 C.2       1 <0>         0.6960
      9 O2          2.1623   -0.1236   -0.5270 O.2       1 <0>        -0.5266
     10 C6          2.4651   -2.7715   -0.2149 C.3       1 <0>         0.0770
     11 C7         -2.4800    0.0402    0.2322 C.3       1 <0>        -0.5981
     12 S1         -2.5707    0.8385    1.8586 S.o2      1 <0>         2.4424
     13 O3         -2.4914   -0.1680    2.8585 O.2       1 <0>        -0.8912
     14 O4         -1.6410    1.9129    1.8844 O.2       1 <0>        -0.8995
     15 C8         -4.2475    1.5303    1.8725 C.3       1 <0>        -0.6583
     16 C9         -4.4872    2.2403    3.1799 C.2       1 <0>         0.5400
     17 O5         -3.6129    2.2761    4.0197 O.2       1 <0>        -0.5221
     18 N3         -5.6732    2.8355    3.4160 N.am      1 <0>        -0.6091
     19 C10        -5.9062    3.5257    4.6871 C.3       1 <0>         0.0795
     20 C11        -6.7293    2.7922    2.4016 C.3       1 <0>         0.0666
     21 H1          0.9469    1.7304   -0.6719 H         1 <0>         0.1123
     22 H2         -0.7750    1.6498   -1.1156 H         1 <0>         0.0817
     23 H3         -0.3041    1.8790    0.5856 H         1 <0>         0.1239
     24 H4         -2.0788   -2.5949    0.5157 H         1 <0>         0.1799
     25 H5          2.3077   -3.8370   -0.0472 H         1 <0>         0.1047
     26 H6          2.8747   -2.6174   -1.2132 H         1 <0>         0.0808
     27 H7          3.1635   -2.3860    0.5278 H         1 <0>         0.0817
     28 H8         -2.5249    0.7996   -0.5483 H         1 <0>         0.1634
     29 H9         -3.3174   -0.6481    0.1181 H         1 <0>         0.1720
     30 H10        -4.3557    2.2373    1.0499 H         1 <0>         0.1664
     31 H11        -4.9735    0.7255    1.7576 H         1 <0>         0.1669
     32 H12        -5.6073    4.5697    4.5937 H         1 <0>         0.0632
     33 H13        -6.9649    3.4722    4.9408 H         1 <0>         0.0774
     34 H14        -5.3198    3.0487    5.4724 H         1 <0>         0.0835
     35 H15        -6.3747    2.2400    1.5313 H         1 <0>         0.0815
     36 H16        -7.6083    2.2964    2.8133 H         1 <0>         0.0715
     37 H17        -6.9905    3.8082    2.1056 H         1 <0>         0.0712
@<TRIPOS>BOND
     1    1    2 1
     2    1   21 1
     3    1   22 1
     4    1   23 1
     5    2    8 am
     6    2    3 1
     7    3    4 2
     8    3   11 1
     9    4    5 1
    10    4   24 1
    11    5    6 2
    12    5    7 am
    13    7    8 am
    14    7   10 1
    15    8    9 2
    16   10   25 1
    17   10   26 1
    18   10   27 1
    19   11   12 1
    20   11   28 1
    21   11   29 1
    22   12   13 2
    23   12   14 2
    24   12   15 1
    25   15   16 1
    26   15   30 1
    27   15   31 1
    28   16   17 2
    29   16   18 am
    30   18   19 1
    31   18   20 1
    32   19   32 1
    33   19   33 1
    34   19   34 1
    35   20   35 1
    36   20   36 1
    37   20   37 1
@<TRIPOS>MOLECULE
ZINC54070449
   33    32     0     0     0
SMALL
USER_CHARGES

@<TRIPOS>ATOM
      1 C1         -0.0187    1.5258    0.0104 C.3       1 <0>        -0.1597
      2 C2          0.0021   -0.0041    0.0020 C.3       1 <0>        -0.0558
      3 H1         -1.0205   -0.3814    0.0098 H         1 <0>         0.1288
      4 C3          0.7309   -0.5033    1.2229 C.2       1 <0>         0.4887
      5 O1          0.1165   -0.7205    2.2534 O.co2     1 <0>        -0.6366
      6 O2          1.9350   -0.6899    1.1802 O.co2     1 <0>        -0.6678
      7 N1          0.6897   -0.4778   -1.2066 N.4       1 <0>        -0.3492
      8 C4         -0.0208    0.0088   -2.3967 C.3       1 <0>        -0.0612
      9 C5          0.7096   -1.9467   -1.2147 C.3       1 <0>        -0.0258
     10 C6          1.5201   -2.4316   -2.3889 C.2       1 <0>         0.5125
     11 O3          2.0309   -1.6323   -3.1447 O.2       1 <0>        -0.5284
     12 N2          1.6774   -3.7535   -2.5993 N.am      1 <0>        -0.5971
     13 C7          1.0604   -4.7190   -1.6864 C.3       1 <0>         0.0581
     14 C8          2.4653   -4.2249   -3.7408 C.3       1 <0>         0.1185
     15 C9          3.9290   -4.3774   -3.3221 C.3       1 <0>        -0.0432
     16 C10         4.7207   -4.8511   -4.4691 C.1       1 <0>         0.2027
     17 N3          5.3317   -5.2166   -5.3543 N.1       1 <0>        -0.4194
     18 H2          1.0039    1.9031    0.0027 H         1 <0>         0.0765
     19 H3         -0.5459    1.8868   -0.8726 H         1 <0>         0.0705
     20 H4         -0.5289    1.8773    0.9072 H         1 <0>         0.1004
     21 H5          0.4894   -0.3427   -3.2935 H         1 <0>         0.1317
     22 H6         -1.0434   -0.3685   -2.3890 H         1 <0>         0.1108
     23 H7         -0.0356    1.0987   -2.3907 H         1 <0>         0.1209
     24 H8          1.1577   -2.3090   -0.2895 H         1 <0>         0.1687
     25 H9         -0.3100   -2.3234   -1.2965 H         1 <0>         0.1487
     26 H10         0.0601   -4.9668   -2.0414 H         1 <0>         0.0730
     27 H11         1.6674   -5.6236   -1.6499 H         1 <0>         0.0902
     28 H12         0.9947   -4.2850   -0.6887 H         1 <0>         0.0835
     29 H13         2.0807   -5.1886   -4.0747 H         1 <0>         0.0984
     30 H14         2.3935   -3.5034   -4.5547 H         1 <0>         0.1000
     31 H15         4.3137   -3.4137   -2.9883 H         1 <0>         0.1150
     32 H16         4.0008   -5.0990   -2.5083 H         1 <0>         0.1148
     33 H17         1.6363   -0.1286   -1.2138 H         1 <0>         0.4317
@<TRIPOS>BOND
     1    1    2 1
     2    1   18 1
     3    1   19 1
     4    1   20 1
     5    2    3 1
     6    2    4 1
     7    2    7 1
     8    4    5 2
     9    4    6 1
    10    7    8 1
    11    7    9 1
    12    7   33 1
    13    8   21 1
    14    8   22 1
    15    8   23 1
    16    9   10 1
    17    9   24 1
    18    9   25 1
    19   10   11 2
    20   10   12 am
    21   12   13 1
    22   12   14 1
    23   13   26 1
    24   13   27 1
    25   13   28 1
    26   14   15 1
    27   14   29 1
    28   14   30 1
    29   15   16 1
    30   15   31 1
    31   15   32 1
    32   16   17 3
@<TRIPOS>MOLECULE
ZINC63796169
   29    30     0     0     0
SMALL
USER_CHARGES

@<TRIPOS>ATOM
      1 C1         -0.0184    1.5028    0.0103 C.3       1 <0>        -0.0610
      2 C2          0.0021   -0.0041    0.0020 C.2       1 <0>         0.0379
      3 N1          0.0097   -0.8438   -1.0138 N.2       1 <0>        -0.2359
      4 N2          0.0274   -2.0862   -0.7843 N.2       1 <0>        -0.2973
      5 C3          0.0385   -2.5679    0.4430 C.2       1 <0>         0.2282
      6 N3          0.0581   -3.8929    0.8650 N.am      1 <0>        -0.6105
      7 C4          0.0678   -4.8892   -0.0426 C.2       1 <0>         0.5170
      8 O1          0.0594   -4.6302   -1.2274 O.2       1 <0>        -0.4298
      9 C5          0.0890   -6.3249    0.4147 C.3       1 <0>         0.0812
     10 H1          0.9350   -6.4835    1.0835 H         1 <0>         0.1182
     11 C6         -1.2170   -6.6503    1.1505 C.3       1 <0>        -0.1883
     12 C7         -1.2595   -8.1376    1.4119 C.2       1 <0>         0.4030
     13 O2         -1.8902   -8.5786    2.3520 O.2       1 <0>        -0.4225
     14 C8         -0.5587   -9.0083    0.5514 C.2       1 <0>        -0.0933
     15 C9          0.1506   -8.5161   -0.4863 C.2       1 <0>         0.0338
     16 O3          0.2052   -7.1892   -0.7204 O.3       1 <0>        -0.2716
     17 O4         -0.5976  -10.3529    0.7690 O.3       1 <0>        -0.2922
     18 C10         0.1339  -11.1785   -0.1395 C.3       1 <0>         0.0172
     19 S1          0.0307   -1.1577    1.3670 S.3       1 <0>         0.0838
     20 H2          1.0042    1.8801    0.0026 H         1 <0>         0.0970
     21 H3         -0.5455    1.8639   -0.8728 H         1 <0>         0.1031
     22 H4         -0.5286    1.8543    0.9071 H         1 <0>         0.0920
     23 H5         -1.2495   -6.1103    2.0967 H         1 <0>         0.1258
     24 H6         -2.0677   -6.3617    0.5332 H         1 <0>         0.1265
     25 H7          0.6843   -9.1933   -1.1366 H         1 <0>         0.1848
     26 H8         -0.2483  -11.0341   -1.1500 H         1 <0>         0.0584
     27 H9          1.1891  -10.9071   -0.1079 H         1 <0>         0.0570
     28 H10         0.0189  -12.2240    0.1465 H         1 <0>         0.1070
     29 H11         0.0648   -4.1000    1.8127 H         1 <0>         0.4305
@<TRIPOS>BOND
     1    1    2 1
     2    1   20 1
     3    1   21 1
     4    1   22 1
     5    2   19 1
     6    2    3 2
     7    3    4 1
     8    4    5 2
     9    5    6 1
    10    5   19 1
    11    6    7 am
    12    6   29 1
    13    7    8 2
    14    7    9 1
    15    9   10 1
    16    9   16 1
    17    9   11 1
    18   11   12 1
    19   11   23 1
    20   11   24 1
    21   12   13 2
    22   12   14 1
    23   14   15 2
    24   14   17 1
    25   15   16 1
    26   15   25 1
    27   17   18 1
    28   18   26 1
    29   18   27 1
    30   18   28 1
@<TRIPOS>MOLECULE
ZINC15230578
   22    22     0     0     0
SMALL
USER_CHARGES
(2R)-3-(4-amino-2-oxo-pyrimidin-1-yl)-2-hydroxy-propanoic acid
@<TRIPOS>ATOM
      1 C1         -1.2449    2.0638    0.0191 C.2       1 <0>        -0.3397
      2 C2         -1.2345    3.4178    0.0323 C.2       1 <0>         0.2181
      3 N1         -0.0409    4.0752    0.0244 N.am      1 <0>        -0.5130
      4 C3          1.1147    3.3859    0.0096 C.2       1 <0>         0.6411
      5 O1          2.1740    3.9908    0.0024 O.2       1 <0>        -0.5246
      6 N2          1.1209    2.0541    0.0024 N.2       1 <0>        -0.5778
      7 C4         -0.0166    1.3714    0.0096 C.2       1 <0>         0.4570
      8 N3          0.0021   -0.0041    0.0020 N.pl3     1 <0>        -0.7601
      9 C5         -0.0156    5.5399    0.0326 C.3       1 <0>         0.0775
     10 C6         -0.0203    6.0581   -1.4070 C.3       1 <0>         0.0513
     11 H1          0.8088    5.6122   -1.9564 H         1 <0>         0.1079
     12 C7          0.1294    7.5577   -1.4016 C.2       1 <0>         0.4436
     13 O2         -0.7706    8.2561   -1.8044 O.co2     1 <0>        -0.6253
     14 O3         -1.2537    5.7048   -2.0364 O.3       1 <0>        -0.5559
     15 H2         -2.1795    1.5226    0.0202 H         1 <0>         0.1510
     16 H3         -2.1621    3.9708    0.0442 H         1 <0>         0.1711
     17 H4          0.4702   -0.3265   -0.8208 H         1 <0>         0.3690
     18 H5         -0.8313   -0.5005    0.0073 H         1 <0>         0.3749
     19 H6         -0.8943    5.9156    0.5568 H         1 <0>         0.0917
     20 H7          0.8853    5.8850    0.5400 H         1 <0>         0.1219
     21 H8         -2.0363    6.0681   -1.5998 H         1 <0>         0.3693
     22 O4          1.2624    8.1174   -0.9493 O.co2     1 <0>        -0.7491
@<TRIPOS>BOND
     1    1    7 1
     2    1    2 2
     3    1   15 1
     4    2    3 1
     5    2   16 1
     6    3    4 am
     7    3    9 1
     8    4    5 2
     9    4    6 1
    10    6    7 2
    11    7    8 1
    12    8   17 1
    13    8   18 1
    14    9   10 1
    15    9   19 1
    16    9   20 1
    17   10   11 1
    18   10   12 1
    19   10   14 1
    20   12   13 2
    21   12   22 1
    22   14   21 1
@<TRIPOS>MOLECULE
ZINC35320560
   15    14     0     0     0
SMALL
USER_CHARGES

@<TRIPOS>ATOM
      1 C1         -0.0184    1.5028    0.0103 C.3       1 <0>         0.0931
      2 C2          0.0021   -0.0041    0.0020 C.2       1 <0>         0.5124
      3 O1          1.0605   -0.5961   -0.0113 O.2       1 <0>        -0.5328
      4 N1         -1.1558   -0.6938    0.0094 N.am      1 <0>        -0.8549
      5 N2          1.3560    2.0099   -0.0001 N.am      1 <0>        -0.7127
      6 C3          1.5843    3.3381    0.0049 C.2       1 <0>         0.4552
      7 O2          0.6517    4.1138    0.0179 O.2       1 <0>        -0.5526
      8 C4          2.9886    3.8562   -0.0058 C.2       1 <0>         0.4981
      9 O3          3.1953    5.0588   -0.0013 O.co2     1 <0>        -0.6448
     10 O4          3.9267    3.0760   -0.0189 O.co2     1 <0>        -0.6662
     11 H1         -0.5455    1.8639   -0.8728 H         1 <0>         0.0917
     12 H2         -0.5286    1.8543    0.9071 H         1 <0>         0.0917
     13 H3         -2.0023   -0.2203    0.0200 H         1 <0>         0.4027
     14 H4         -1.1427   -1.6637    0.0040 H         1 <0>         0.4015
     15 H5          2.1018    1.3896   -0.0105 H         1 <0>         0.4177
@<TRIPOS>BOND
     1    1    2 1
     2    1    5 1
     3    1   11 1
     4    1   12 1
     5    2    3 2
     6    2    4 am
     7    4   13 1
     8    4   14 1
     9    5    6 am
    10    5   15 1
    11    6    7 2
    12    6    8 1
    13    8    9 2
    14    8   10 1
@<TRIPOS>MOLECULE
ZINC39083249
   25    25     0     0     0
SMALL
USER_CHARGES

@<TRIPOS>ATOM
      1 C1         -0.0187    1.5258    0.0104 C.3       1 <0>        -0.1197
      2 C2          0.0021   -0.0041    0.0020 C.3       1 <0>        -0.1266
      3 C3          0.8349   -0.5283   -1.1941 C.3       1 <0>        -0.1017
      4 C4          2.2900   -0.4032   -0.6784 C.3       1 <0>        -0.1165
      5 C5          2.1985   -0.7946    0.8110 C.3       1 <0>        -0.0290
      6 C6          0.7438   -0.5408    1.2436 C.3       1 <0>        -0.0954
      7 C7          3.1359    0.0575    1.6272 C.2       1 <0>         0.5053
      8 O1          3.0198    1.2712    1.6191 O.co2     1 <0>        -0.6330
      9 O2          4.0105   -0.4667    2.2957 O.co2     1 <0>        -0.6902
     10 N1          2.5331   -2.2150    0.9795 N.4       1 <0>        -0.6059
     11 C8         -1.4020   -0.5490   -0.0501 C.2       1 <0>         0.5042
     12 O3         -2.1333   -0.2615   -0.9823 O.co2     1 <0>        -0.6903
     13 O4         -1.8066   -1.2775    0.8399 O.co2     1 <0>        -0.6997
     14 H1          1.0039    1.9031    0.0027 H         1 <0>         0.0587
     15 H2         -0.5459    1.8868   -0.8726 H         1 <0>         0.0530
     16 H3         -0.5289    1.8773    0.9072 H         1 <0>         0.0453
     17 H4          0.5894   -1.5683   -1.4094 H         1 <0>         0.0591
     18 H5          0.6820    0.0960   -2.0744 H         1 <0>         0.0766
     19 H6          2.9450   -1.0906   -1.2139 H         1 <0>         0.0655
     20 H7          2.6447    0.6222   -0.7822 H         1 <0>         0.1044
     21 H8          0.7158    0.1987    2.0439 H         1 <0>         0.0857
     22 H9          0.2861   -1.4716    1.5786 H         1 <0>         0.0864
     23 H10         3.4806   -2.3761    0.6724 H         1 <0>         0.4216
     24 H11         2.4474   -2.4676    1.9527 H         1 <0>         0.4277
     25 H12         1.9010   -2.7770    0.4293 H         1 <0>         0.4145
@<TRIPOS>BOND
     1    1    2 1
     2    1   14 1
     3    1   15 1
     4    1   16 1
     5    2    6 1
     6    2    3 1
     7    2   11 1
     8    3    4 1
     9    3   17 1
    10    3   18 1
    11    4    5 1
    12    4   19 1
    13    4   20 1
    14    5    6 1
    15    5    7 1
    16    5   10 1
    17    6   21 1
    18    6   22 1
    19    7    8 2
    20    7    9 1
    21   10   23 1
    22   10   24 1
    23   10   25 1
    24   11   12 2
    25   11   13 1
@<TRIPOS>MOLECULE
ZINC40580261
   39    39     0     0     0
SMALL
USER_CHARGES

@<TRIPOS>ATOM
      1 C1         -0.0187    1.5258    0.0104 C.3       1 <0>        -0.1329
      2 C2          0.0021   -0.0041    0.0020 C.3       1 <0>        -0.0641
      3 C3          0.7421   -0.5109    1.2415 C.3       1 <0>        -0.1359
      4 C4         -1.4333   -0.5336    0.0129 C.3       1 <0>        -0.1352
      5 C5          0.7182   -0.4975   -1.2568 C.3       1 <0>         0.1033
      6 H1          0.1910   -0.1364   -2.1398 H         1 <0>         0.0784
      7 C6          2.1320    0.0241   -1.2675 C.2       1 <0>         0.4966
      8 O1          3.0254   -0.6256   -0.7515 O.co2     1 <0>        -0.6908
      9 O2          2.3824    1.0959   -1.7921 O.co2     1 <0>        -0.6952
     10 N1          0.7381   -1.9623   -1.2648 N.am      1 <0>        -0.7064
     11 C7          0.8378   -2.6285   -2.4322 C.2       1 <0>         0.7071
     12 O3          0.9113   -2.0138   -3.4786 O.2       1 <0>        -0.5956
     13 N2          0.8561   -3.9761   -2.4396 N.am      1 <0>        -0.7441
     14 C8          0.9645   -4.7003   -3.7085 C.3       1 <0>         0.1255
     15 C9          0.9633   -6.1835   -3.4421 C.2       1 <0>         0.5170
     16 O4          0.8800   -6.5952   -2.3044 O.2       1 <0>        -0.5328
     17 N3          1.0547   -7.0526   -4.4682 N.am      1 <0>        -0.7018
     18 C10         1.0534   -8.4945   -4.2093 C.3       1 <0>         0.0800
     19 C11         2.0636   -9.3507   -4.9756 C.3       1 <0>        -0.1934
     20 C12         0.5780   -9.4141   -5.3358 C.3       1 <0>        -0.1894
     21 H2          1.0039    1.9031    0.0027 H         1 <0>         0.0719
     22 H3         -0.5459    1.8868   -0.8726 H         1 <0>         0.0515
     23 H4         -0.5289    1.8773    0.9072 H         1 <0>         0.0450
     24 H5          0.2319   -0.1594    2.1383 H         1 <0>         0.0437
     25 H6          0.7568   -1.6008    1.2356 H         1 <0>         0.0456
     26 H7          1.7647   -0.1336    1.2338 H         1 <0>         0.0726
     27 H8         -1.9605   -0.1726   -0.8702 H         1 <0>         0.0506
     28 H9         -1.4185   -1.6235    0.0069 H         1 <0>         0.0495
     29 H10        -1.9435   -0.1821    0.9097 H         1 <0>         0.0492
     30 H11         0.6794   -2.4528   -0.4300 H         1 <0>         0.3884
     31 H12         0.7975   -4.4666   -1.6048 H         1 <0>         0.4032
     32 H13         0.1181   -4.4449   -4.3461 H         1 <0>         0.0955
     33 H14         1.8926   -4.4216   -4.2077 H         1 <0>         0.0968
     34 H15         1.1213   -6.7233   -5.3782 H         1 <0>         0.4054
     35 H16         0.8176   -8.7882   -3.1864 H         1 <0>         0.1386
     36 H17         2.7291   -8.8412   -5.6724 H         1 <0>         0.0984
     37 H18         2.4927  -10.2080   -4.4569 H         1 <0>         0.1023
     38 H19         0.0297  -10.3131   -5.0541 H         1 <0>         0.1032
     39 H20         0.2661   -8.9463   -6.2696 H         1 <0>         0.0981
@<TRIPOS>BOND
     1    1    2 1
     2    1   21 1
     3    1   22 1
     4    1   23 1
     5    2    3 1
     6    2    4 1
     7    2    5 1
     8    3   24 1
     9    3   25 1
    10    3   26 1
    11    4   27 1
    12    4   28 1
    13    4   29 1
    14    5    6 1
    15    5    7 1
    16    5   10 1
    17    7    8 2
    18    7    9 1
    19   10   11 am
    20   10   30 1
    21   11   12 2
    22   11   13 am
    23   13   14 1
    24   13   31 1
    25   14   15 1
    26   14   32 1
    27   14   33 1
    28   15   16 2
    29   15   17 am
    30   17   18 1
    31   17   34 1
    32   18   20 1
    33   18   19 1
    34   18   35 1
    35   19   20 1
    36   19   36 1
    37   19   37 1
    38   20   38 1
    39   20   39 1
@<TRIPOS>MOLECULE
ZINC45091675
   22    21     0     0     0
SMALL
USER_CHARGES

@<TRIPOS>ATOM
      1 C1         -0.0187    1.5258    0.0104 C.3       1 <0>        -0.1247
      2 C2          0.0021   -0.0041    0.0020 C.3       1 <0>         0.1230
      3 N1         -1.3723   -0.5112    0.0124 N.am      1 <0>        -0.7261
      4 C3         -1.6006   -1.8394    0.0075 C.2       1 <0>         0.4530
      5 O1         -0.6680   -2.6151   -0.0056 O.2       1 <0>        -0.5505
      6 C4         -3.0049   -2.3575    0.0181 C.2       1 <0>         0.4962
      7 O2         -3.2116   -3.5601    0.0136 O.co2     1 <0>        -0.6450
      8 O3         -3.9430   -1.5773    0.0312 O.co2     1 <0>        -0.6704
      9 C5          1.4167    2.0553   -0.0004 C.3       1 <0>        -0.6156
     10 S1          1.3921    3.8692    0.0095 S.o2      1 <0>         2.6160
     11 O4          0.8684    4.3583   -1.2175 O.2       1 <0>        -0.9627
     12 O5          0.8920    4.3450    1.2516 O.2       1 <0>        -0.9627
     13 N2          2.9865    4.3165   -0.0033 N.pl3     1 <0>        -1.2528
     14 H1         -0.5459    1.8868   -0.8726 H         1 <0>         0.0891
     15 H2         -0.5289    1.8773    0.9072 H         1 <0>         0.0891
     16 H3          0.5123   -0.3556   -0.8948 H         1 <0>         0.0641
     17 H4          0.5293   -0.3651    0.8851 H         1 <0>         0.0641
     18 H5         -2.1181    0.1091    0.0229 H         1 <0>         0.4077
     19 H6          1.9439    1.6943    0.8826 H         1 <0>         0.1381
     20 H7          1.9269    1.7038   -0.8972 H         1 <0>         0.1381
     21 H8          3.6803    3.6387   -0.0135 H         1 <0>         0.4127
     22 H9          3.2266    5.2563   -0.0005 H         1 <0>         0.4191
@<TRIPOS>BOND
     1    1    2 1
     2    1    9 1
     3    1   14 1
     4    1   15 1
     5    2    3 1
     6    2   16 1
     7    2   17 1
     8    3    4 am
     9    3   18 1
    10    4    5 2
    11    4    6 1
    12    6    7 2
    13    6    8 1
    14    9   10 1
    15    9   19 1
    16    9   20 1
    17   10   11 2
    18   10   12 2
    19   10   13 1
    20   13   21 1
    21   13   22 1
@<TRIPOS>MOLECULE
ZINC22611375
   14    14     0     0     0
SMALL
USER_CHARGES
4-methyl-5-thioxo-1,3,4-thiadiazole-2-sulfonic acid
@<TRIPOS>ATOM
      1 C1         -1.1311    2.0067    5.0971 C.3       1 <0>         0.0706
      2 N1         -1.4703    2.1882    3.6835 N.pl3     1 <0>        -0.3708
      3 C2         -2.6250    2.8022    3.3208 C.2       1 <0>         0.2374
      4 S1         -3.8639    3.4593    4.3029 S.2       1 <0>        -0.4513
      5 S2         -2.5010    2.7370    1.5398 S.3       1 <0>         0.1396
      6 C3         -0.9267    1.9002    1.4394 C.2       1 <0>        -0.3811
      7 N2         -0.6277    1.7347    2.6947 N.2       1 <0>        -0.1835
      8 S3         -0.0172    1.4168    0.0098 S.o2      1 <0>         2.6918
      9 O1          0.0021   -0.0041    0.0020 O.2       1 <0>        -1.0131
     10 O2          1.1718    2.1948    0.0027 O.2       1 <0>        -1.0131
     11 O3         -0.8262    1.8475   -1.2052 O.3       1 <0>        -1.0329
     12 H1         -1.9276    2.4352    5.7232 H         1 <0>         0.1198
     13 H2         -0.1803    2.5154    5.3142 H         1 <0>         0.0933
     14 H3         -1.0308    0.9332    5.3152 H         1 <0>         0.0932
@<TRIPOS>BOND
     1    1    2 1
     2    1   12 1
     3    1   13 1
     4    1   14 1
     5    2    7 1
     6    2    3 1
     7    3    4 2
     8    3    5 1
     9    5    6 1
    10    6    7 2
    11    6    8 1
    12    8    9 2
    13    8   10 2
    14    8   11 1
@<TRIPOS>MOLECULE
ZINC37582196
   36    37     0     0     0
SMALL
USER_CHARGES

@<TRIPOS>ATOM
      1 C1         -0.0184    1.5028    0.0103 C.3       1 <0>        -0.1100
      2 C2          0.0021   -0.0041    0.0020 C.2       1 <0>         0.1642
      3 C3          0.0085   -0.8669   -1.1804 C.2       1 <0>        -0.2781
      4 C4          0.0289   -2.1554   -0.7288 C.2       1 <0>         0.0960
      5 O1          0.0349   -2.1260    0.6063 O.3       1 <0>        -0.0864
      6 N1          0.0230   -0.7819    1.0439 N.2       1 <0>        -0.3215
      7 C5          0.0422   -3.3941   -1.5871 C.3       1 <0>        -0.0863
      8 C6         -0.0049   -0.4290   -2.5878 C.2       1 <0>         0.6053
      9 O2          1.0427   -0.2333   -3.1737 O.2       1 <0>        -0.5458
     10 N2         -1.1780   -0.2457   -3.2253 N.am      1 <0>        -0.5592
     11 C7         -2.4400   -0.4815   -2.5195 C.3       1 <0>         0.0239
     12 C8         -2.8901    0.7942   -1.8553 C.2       1 <0>         0.4813
     13 O3         -2.2190    1.8065   -1.9617 O.co2     1 <0>        -0.6680
     14 O4         -3.9253    0.8139   -1.2116 O.co2     1 <0>        -0.6844
     15 C9         -1.1914    0.1895   -4.6241 C.3       1 <0>         0.1451
     16 H1         -0.1665    0.2998   -4.9785 H         1 <0>         0.1189
     17 C10        -1.9167   -0.8627   -5.4792 C.3       1 <0>        -0.1430
     18 C11        -2.1928   -0.2428   -6.8788 C.3       1 <0>        -0.5750
     19 S1         -2.6925    1.4644   -6.3988 S.o2      1 <0>         2.3576
     20 O5         -4.1056    1.5097   -6.2564 O.2       1 <0>        -0.9361
     21 O6         -2.0461    2.3940   -7.2574 O.2       1 <0>        -0.9469
     22 C12        -1.9215    1.5499   -4.7321 C.3       1 <0>        -0.5755
     23 H2          1.0042    1.8801    0.0026 H         1 <0>         0.0811
     24 H3         -0.5455    1.8639   -0.8728 H         1 <0>         0.1347
     25 H4         -0.5286    1.8543    0.9071 H         1 <0>         0.0794
     26 H5          1.0730   -3.6783   -1.7989 H         1 <0>         0.0967
     27 H6         -0.4577   -4.2067   -1.0600 H         1 <0>         0.0905
     28 H7         -0.4790   -3.1932   -2.5230 H         1 <0>         0.0913
     29 H8         -3.1986   -0.8080   -3.2308 H         1 <0>         0.0821
     30 H9         -2.2947   -1.2531   -1.7635 H         1 <0>         0.0786
     31 H10        -1.2886   -1.7472   -5.5857 H         1 <0>         0.1011
     32 H11        -2.8595   -1.1360   -5.0052 H         1 <0>         0.0932
     33 H12        -1.2904   -0.2322   -7.4902 H         1 <0>         0.1381
     34 H13        -3.0046   -0.7629   -7.3872 H         1 <0>         0.1391
     35 H14        -2.6832    1.6422   -3.9580 H         1 <0>         0.1725
     36 H15        -1.2114    2.3751   -4.6775 H         1 <0>         0.1453
@<TRIPOS>BOND
     1    1    2 1
     2    1   23 1
     3    1   24 1
     4    1   25 1
     5    2    6 2
     6    2    3 1
     7    3    4 2
     8    3    8 1
     9    4    5 1
    10    4    7 1
    11    5    6 1
    12    7   26 1
    13    7   27 1
    14    7   28 1
    15    8    9 2
    16    8   10 am
    17   10   11 1
    18   10   15 1
    19   11   12 1
    20   11   29 1
    21   11   30 1
    22   12   13 2
    23   12   14 1
    24   15   16 1
    25   15   22 1
    26   15   17 1
    27   17   18 1
    28   17   31 1
    29   17   32 1
    30   18   19 1
    31   18   33 1
    32   18   34 1
    33   19   20 2
    34   19   21 2
    35   19   22 1
    36   22   35 1
    37   22   36 1
@<TRIPOS>MOLECULE
ZINC40581600
   38    38     0     0     0
SMALL
USER_CHARGES

@<TRIPOS>ATOM
      1 C1         -0.0206    1.8181    0.0071 C.3       1 <0>        -0.6590
      2 S1          0.0019    0.0042   -0.0011 S.o2      1 <0>         2.4156
      3 O1          0.7970   -0.4403    1.0896 O.2       1 <0>        -0.9417
      4 O2         -1.3357   -0.4614   -0.1161 O.2       1 <0>        -0.9378
      5 C2          0.8775   -0.3787   -1.5430 C.3       1 <0>        -0.6025
      6 C3          0.9843   -1.8963   -1.7054 C.3       1 <0>        -0.1015
      7 C4          1.7228   -2.2193   -3.0059 C.3       1 <0>         0.0993
      8 H1          1.2223   -1.7271   -3.8398 H         1 <0>         0.0888
      9 C5          1.7207   -3.7099   -3.2278 C.2       1 <0>         0.4907
     10 O3          0.6828   -4.2823   -3.5135 O.co2     1 <0>        -0.6918
     11 O4          2.7570   -4.3434   -3.1217 O.co2     1 <0>        -0.6831
     12 N1          3.1045   -1.7411   -2.9146 N.am      1 <0>        -0.7093
     13 C6          3.7906   -1.4449   -4.0362 C.2       1 <0>         0.7118
     14 O5          3.2967   -1.6613   -5.1260 O.2       1 <0>        -0.5764
     15 N2          5.0241   -0.9088   -3.9499 N.am      1 <0>        -0.6484
     16 C7          5.6593   -0.7605   -2.6394 C.3       1 <0>         0.1221
     17 C8          6.9011   -1.6553   -2.5690 C.3       1 <0>        -0.6258
     18 S2          8.0318   -1.1967   -3.9157 S.o2      1 <0>         2.4195
     19 O6          9.0537   -2.1802   -4.0021 O.2       1 <0>        -0.9427
     20 O7          8.3952    0.1677   -3.7554 O.2       1 <0>        -0.9396
     21 C9          6.9628   -1.3446   -5.3778 C.3       1 <0>        -0.6202
     22 C10         5.7172   -0.4864   -5.1680 C.3       1 <0>         0.1396
     23 H2          1.0024    2.1942   -0.0006 H         1 <0>         0.1260
     24 H3         -0.5470    2.1788   -0.8766 H         1 <0>         0.1270
     25 H4         -0.5308    2.1711    0.9033 H         1 <0>         0.1266
     26 H5          0.3277    0.0391   -2.3864 H         1 <0>         0.1339
     27 H6          1.8771    0.0545   -1.5104 H         1 <0>         0.1267
     28 H7          1.5340   -2.3142   -0.8620 H         1 <0>         0.0807
     29 H8         -0.0154   -2.3295   -1.7380 H         1 <0>         0.1021
     30 H9          3.5256   -1.6376   -2.0469 H         1 <0>         0.3878
     31 H10         5.9520    0.2793   -2.4932 H         1 <0>         0.0950
     32 H11         4.9561   -1.0529   -1.8597 H         1 <0>         0.1026
     33 H12         7.3992   -1.5139   -1.6098 H         1 <0>         0.1463
     34 H13         6.6061   -2.6988   -2.6791 H         1 <0>         0.1443
     35 H14         7.5013   -0.9995   -6.2604 H         1 <0>         0.1448
     36 H15         6.6683   -2.3856   -5.5111 H         1 <0>         0.1410
     37 H16         5.0514   -0.6016   -6.0233 H         1 <0>         0.1185
     38 H17         6.0111    0.5591   -5.0748 H         1 <0>         0.0891
@<TRIPOS>BOND
     1    1    2 1
     2    1   23 1
     3    1   24 1
     4    1   25 1
     5    2    3 2
     6    2    4 2
     7    2    5 1
     8    5    6 1
     9    5   26 1
    10    5   27 1
    11    6    7 1
    12    6   28 1
    13    6   29 1
    14    7    8 1
    15    7    9 1
    16    7   12 1
    17    9   10 2
    18    9   11 1
    19   12   13 am
    20   12   30 1
    21   13   14 2
    22   13   15 am
    23   15   22 1
    24   15   16 1
    25   16   17 1
    26   16   31 1
    27   16   32 1
    28   17   18 1
    29   17   33 1
    30   17   34 1
    31   18   19 2
    32   18   20 2
    33   18   21 1
    34   21   22 1
    35   21   35 1
    36   21   36 1
    37   22   37 1
    38   22   38 1
@<TRIPOS>MOLECULE
ZINC49025442
   43    43     0     0     0
SMALL
USER_CHARGES

@<TRIPOS>ATOM
      1 C1          0.3589    2.3862   -0.0512 C.3       1 <0>        -0.1680
      2 C2         -0.0886    0.9263   -0.1486 C.3       1 <0>         0.0606
      3 N1          0.3903    0.1896    1.0236 N.am      1 <0>        -0.5979
      4 C3         -0.5164   -0.0745    2.1436 C.3       1 <0>         0.1249
      5 C4         -1.2215   -1.3875    1.9203 C.2       1 <0>         0.4745
      6 O1         -0.9894   -2.0386    0.9237 O.2       1 <0>        -0.4743
      7 N2         -2.1100   -1.8382    2.8280 N.am      1 <0>        -0.6356
      8 C5         -2.7954   -3.1146    2.6109 C.3       1 <0>         0.0946
      9 C6         -2.3903   -1.0517    4.0317 C.3       1 <0>         0.0817
     10 C7          1.6651   -0.2453    1.0717 C.2       1 <0>         0.7550
     11 O2          2.0731   -0.8243    2.0600 O.2       1 <0>        -0.6099
     12 N3          2.4876   -0.0385    0.0242 N.am      1 <0>        -0.6039
     13 C8          3.9566   -0.1613    0.0479 C.3       1 <0>         0.1139
     14 C9          4.4483    0.7354   -1.1156 C.3       1 <0>         0.0726
     15 H1          4.4780    1.7830   -0.8159 H         1 <0>         0.0740
     16 C10         3.3477    0.4931   -2.1821 C.3       1 <0>        -0.1023
     17 C11         2.0681    0.3407   -1.3329 C.3       1 <0>         0.0342
     18 H2          1.5299    1.2881   -1.3034 H         1 <0>         0.0909
     19 C12         1.1876   -0.7342   -1.9163 C.2       1 <0>         0.4837
     20 O3          1.0383   -1.7887   -1.3228 O.co2     1 <0>        -0.6464
     21 O4          0.6245   -0.5493   -2.9818 O.co2     1 <0>        -0.6995
     22 O5          5.7257    0.3047   -1.5897 O.3       1 <0>        -0.3730
     23 C13         6.8301    0.9453   -0.9478 C.3       1 <0>         0.0296
     24 H3          1.4380    2.4263    0.0969 H         1 <0>         0.0582
     25 H4          0.0989    2.9081   -0.9722 H         1 <0>         0.0673
     26 H5         -0.1415    2.8642    0.7909 H         1 <0>         0.0517
     27 H6         -1.1770    0.8816   -0.1861 H         1 <0>         0.0672
     28 H7          0.3248    0.4791   -1.0526 H         1 <0>         0.1376
     29 H8          0.0552   -0.1220    3.0704 H         1 <0>         0.1069
     30 H9         -1.2527    0.7264    2.2115 H         1 <0>         0.0970
     31 H10        -2.0591   -3.9155    2.5430 H         1 <0>         0.0569
     32 H11        -3.4700   -3.3111    3.4442 H         1 <0>         0.0679
     33 H12        -3.3670   -3.0671    1.6840 H         1 <0>         0.0568
     34 H13        -3.2149   -0.3668    3.8344 H         1 <0>         0.0517
     35 H14        -2.6614   -1.7211    4.8482 H         1 <0>         0.0675
     36 H15        -1.5031   -0.4820    4.3083 H         1 <0>         0.0701
     37 H16         4.3520    0.1989    0.9977 H         1 <0>         0.0667
     38 H17         4.2535   -1.1966   -0.1194 H         1 <0>         0.0699
     39 H18         3.2676    1.3472   -2.8546 H         1 <0>         0.0802
     40 H19         3.5467   -0.4215   -2.7407 H         1 <0>         0.0830
     41 H20         6.7719    2.0212   -1.1126 H         1 <0>         0.0395
     42 H21         6.7979    0.7393    0.1221 H         1 <0>         0.0408
     43 H22         7.7629    0.5640   -1.3633 H         1 <0>         0.0837
@<TRIPOS>BOND
     1    1    2 1
     2    1   24 1
     3    1   25 1
     4    1   26 1
     5    2    3 1
     6    2   27 1
     7    2   28 1
     8    3    4 1
     9    3   10 am
    10    4    5 1
    11    4   29 1
    12    4   30 1
    13    5    6 2
    14    5    7 am
    15    7    8 1
    16    7    9 1
    17    8   31 1
    18    8   32 1
    19    8   33 1
    20    9   34 1
    21    9   35 1
    22    9   36 1
    23   10   11 2
    24   10   12 am
    25   12   17 1
    26   12   13 1
    27   13   14 1
    28   13   37 1
    29   13   38 1
    30   14   15 1
    31   14   16 1
    32   14   22 1
    33   16   17 1
    34   16   39 1
    35   16   40 1
    36   17   18 1
    37   17   19 1
    38   19   20 2
    39   19   21 1
    40   22   23 1
    41   23   41 1
    42   23   42 1
    43   23   43 1
@<TRIPOS>MOLECULE
ZINC61797969
   33    34     0     0     0
SMALL
USER_CHARGES

@<TRIPOS>ATOM
      1 C1          0.3221    1.4604   -0.9481 C.3       1 <0>         0.0786
      2 N1          0.1894    0.0015   -0.9628 N.am      1 <0>        -0.6101
      3 C2          1.3575   -0.8348   -1.2402 C.3       1 <0>         0.0970
      4 C3          1.3297   -2.0955   -0.3809 C.3       1 <0>         0.0859
      5 N2          0.0399   -2.7748   -0.5073 N.am      1 <0>        -0.5710
      6 C4         -1.0968   -2.0569   -0.6065 C.2       1 <0>         0.5220
      7 O1         -2.1765   -2.6108   -0.6024 O.2       1 <0>        -0.4787
      8 C5         -1.0075   -0.5672   -0.7153 C.2       1 <0>         0.5173
      9 O2         -2.0000    0.1191   -0.5866 O.2       1 <0>        -0.5038
     10 C6         -0.0163   -4.2385   -0.5268 C.3       1 <0>         0.1057
     11 C7         -0.9980   -4.7279    0.5424 C.3       1 <0>        -0.1574
     12 C8         -0.4848   -4.3125    1.9237 C.3       1 <0>         0.0677
     13 O3          0.8238   -4.8500    2.1256 O.3       1 <0>        -0.3851
     14 C9          1.7951   -4.3902    1.1836 C.3       1 <0>         0.0488
     15 C10         1.3736   -4.8087   -0.2273 C.3       1 <0>        -0.1434
     16 C11        -0.4718   -4.7076   -1.8845 C.2       1 <0>         0.5018
     17 O4         -0.7264   -3.8945   -2.7566 O.co2     1 <0>        -0.6773
     18 O5         -0.5857   -5.9002   -2.1109 O.co2     1 <0>        -0.6879
     19 H1         -0.6441    1.9109   -0.7208 H         1 <0>         0.0861
     20 H2          1.0467    1.7517   -0.1877 H         1 <0>         0.0621
     21 H3          0.6625    1.8042   -1.9249 H         1 <0>         0.0619
     22 H4          1.3558   -1.1171   -2.2930 H         1 <0>         0.0813
     23 H5          2.2640   -0.2704   -1.0214 H         1 <0>         0.0978
     24 H6          2.1238   -2.7686   -0.7042 H         1 <0>         0.1068
     25 H7          1.4922   -1.8235    0.6620 H         1 <0>         0.0702
     26 H8         -1.9775   -4.2825    0.3687 H         1 <0>         0.0998
     27 H9         -1.0770   -5.8140    0.4946 H         1 <0>         0.0833
     28 H10        -0.4445   -3.2250    1.9846 H         1 <0>         0.0399
     29 H11        -1.1574   -4.6951    2.6914 H         1 <0>         0.0889
     30 H12         1.8653   -3.3037    1.2349 H         1 <0>         0.0548
     31 H13         2.7650   -4.8287    1.4183 H         1 <0>         0.0894
     32 H14         1.3425   -5.8964   -0.2907 H         1 <0>         0.0942
     33 H15         2.0900   -4.4211   -0.9516 H         1 <0>         0.0734
@<TRIPOS>BOND
     1    1    2 1
     2    1   19 1
     3    1   20 1
     4    1   21 1
     5    2    8 am
     6    2    3 1
     7    3    4 1
     8    3   22 1
     9    3   23 1
    10    4    5 1
    11    4   24 1
    12    4   25 1
    13    5    6 am
    14    5   10 1
    15    6    7 2
    16    6    8 1
    17    8    9 2
    18   10   15 1
    19   10   11 1
    20   10   16 1
    21   11   12 1
    22   11   26 1
    23   11   27 1
    24   12   13 1
    25   12   28 1
    26   12   29 1
    27   13   14 1
    28   14   15 1
    29   14   30 1
    30   14   31 1
    31   15   32 1
    32   15   33 1
    33   16   17 2
    34   16   18 1
@<TRIPOS>MOLECULE
ZINC01847785
   42    43     0     0     0
SMALL
USER_CHARGES
4-methoxy-3-[(2-methoxy-5-sulfo-phenyl)carbamoylamino]benzenesulfonic acid
@<TRIPOS>ATOM
      1 C1          2.0630    0.0808    1.7292 C.3       1 <0>         0.0319
      2 O1          2.1993    1.3796    1.1490 O.3       1 <0>        -0.3236
      3 C2          1.0936    1.9142    0.5653 C.ar      1 <0>         0.1121
      4 C3         -0.0962    1.2044    0.5514 C.ar      1 <0>        -0.2157
      5 C4         -1.2179    1.7467   -0.0478 C.ar      1 <0>        -0.0146
      6 C5         -1.1597    3.0021   -0.6244 C.ar      1 <0>        -0.6684
      7 C6          0.0234    3.7165   -0.6147 C.ar      1 <0>        -0.0034
      8 C7          1.1544    3.1765   -0.0204 C.ar      1 <0>         0.1141
      9 N1          2.3552    3.8993   -0.0089 N.am      1 <0>        -0.6713
     10 C8          2.3332    5.2439   -0.0973 C.2       1 <0>         0.6898
     11 O2          1.2717    5.8369   -0.0827 O.2       1 <0>        -0.5286
     12 N2          3.4877    5.9314   -0.2018 N.am      1 <0>        -0.6724
     13 C9          3.4720    7.3328   -0.1943 C.ar      1 <0>         0.1073
     14 C10         2.4196    8.0196   -0.7814 C.ar      1 <0>         0.0091
     15 C11         2.4039    9.4015   -0.7686 C.ar      1 <0>        -0.6726
     16 C12         3.4403   10.1027   -0.1803 C.ar      1 <0>        -0.0089
     17 C13         4.4952    9.4250    0.4023 C.ar      1 <0>        -0.2198
     18 C14         4.5160    8.0397    0.3978 C.ar      1 <0>         0.1192
     19 O3          5.5529    7.3718    0.9703 O.3       1 <0>        -0.3218
     20 C15         6.5881    8.1621    1.5584 C.3       1 <0>         0.0310
     21 S1          1.0631   10.2721   -1.5095 S.o2      1 <0>         2.6943
     22 O4         -0.0468    9.3847   -1.5097 O.2       1 <0>        -1.0327
     23 O5          1.0166   11.5500   -0.8898 O.2       1 <0>        -1.0650
     24 S2         -2.5954    3.6897   -1.3798 S.o2      1 <0>         2.6940
     25 O6         -3.7149    3.0554   -0.7768 O.2       1 <0>        -1.0652
     26 O7         -2.4228    5.1002   -1.3711 O.2       1 <0>        -1.0325
     27 H1          1.7646   -0.6313    0.9599 H         1 <0>         0.0535
     28 H2          3.0161   -0.2269    2.1592 H         1 <0>         0.0930
     29 H3          1.3042    0.1101    2.5112 H         1 <0>         0.0533
     30 H4         -0.1462    0.2255    1.0048 H         1 <0>         0.1279
     31 H5         -2.1433    1.1901   -0.0616 H         1 <0>         0.1362
     32 H6          0.0673    4.6948   -1.0700 H         1 <0>         0.1714
     33 H7          3.2020    3.4317    0.0627 H         1 <0>         0.4054
     34 H8          4.3296    5.4562   -0.2821 H         1 <0>         0.4043
     35 H9          1.6109    7.4745   -1.2455 H         1 <0>         0.1660
     36 H10         3.4259   11.1825   -0.1762 H         1 <0>         0.1367
     37 H11         5.3034    9.9756    0.8606 H         1 <0>         0.1281
     38 H12         7.3515    7.5070    1.9781 H         1 <0>         0.0932
     39 H13         7.0357    8.7999    0.7962 H         1 <0>         0.0536
     40 H14         6.1667    8.7824    2.3495 H         1 <0>         0.0534
     41 O8          1.4310   10.5088   -2.9673 O.3       1 <0>        -1.0812
     42 O9         -2.5857    3.2593   -2.8397 O.3       1 <0>        -1.0810
@<TRIPOS>BOND
     1    1    2 1
     2    1   27 1
     3    1   28 1
     4    1   29 1
     5    2    3 1
     6    3    8 ar
     7    3    4 ar
     8    4    5 ar
     9    4   30 1
    10    5    6 ar
    11    5   31 1
    12    6    7 ar
    13    6   24 1
    14    7    8 ar
    15    7   32 1
    16    8    9 1
    17    9   10 am
    18    9   33 1
    19   10   11 2
    20   10   12 am
    21   12   13 1
    22   12   34 1
    23   13   18 ar
    24   13   14 ar
    25   14   15 ar
    26   14   35 1
    27   15   16 ar
    28   15   21 1
    29   16   17 ar
    30   16   36 1
    31   17   18 ar
    32   17   37 1
    33   18   19 1
    34   19   20 1
    35   20   38 1
    36   20   39 1
    37   20   40 1
    38   21   22 2
    39   21   23 2
    40   21   41 1
    41   24   25 2
    42   24   26 2
    43   24   42 1
@<TRIPOS>MOLECULE
ZINC13358565
   48    48     0     0     0
SMALL
USER_CHARGES
(2R)-2-[[5-[(E)-3-hydroxy-3-oxo-prop-1-enyl]-2,3-dimethoxy-phenyl]sulfonylamino]-4-methyl-pentanoic acid
@<TRIPOS>ATOM
      1 C1          2.3654    3.9338   -5.6982 C.3       1 <0>        -0.1450
      2 C2          2.3714    2.4888   -5.1952 C.3       1 <0>        -0.1022
      3 C3          1.6901    1.5870   -6.2265 C.3       1 <0>        -0.1390
      4 C4          3.8152    2.0267   -4.9884 C.3       1 <0>        -0.0980
      5 C5          4.4504    2.8312   -3.8525 C.3       1 <0>         0.1125
      6 H1          4.3511    3.8963   -4.0619 H         1 <0>         0.0836
      7 C6          5.9104    2.4753   -3.7402 C.2       1 <0>         0.4578
      8 O1          6.3407    2.0065   -2.7131 O.co2     1 <0>        -0.6229
      9 N1          3.7726    2.5161   -2.5925 N.pl3     1 <0>        -1.0764
     10 S1          3.5849    3.6880   -1.4376 S.o2      1 <0>         2.7021
     11 O2          2.8907    3.0837   -0.3550 O.2       1 <0>        -0.9726
     12 O3          4.8536    4.3078   -1.2781 O.2       1 <0>        -0.9415
     13 C7          2.5074    4.9110   -2.1069 C.ar      1 <0>        -0.6566
     14 C8          2.9743    6.1870   -2.3357 C.ar      1 <0>        -0.0361
     15 C9          2.1197    7.1593   -2.8671 C.ar      1 <0>        -0.0233
     16 C10         0.7914    6.8310   -3.1647 C.ar      1 <0>        -0.1487
     17 C11         0.3322    5.5501   -2.9322 C.ar      1 <0>         0.0904
     18 C12         1.1919    4.5850   -2.4075 C.ar      1 <0>         0.1596
     19 O4          0.7392    3.3239   -2.1853 O.3       1 <0>        -0.3252
     20 C13         0.0453    3.0906   -0.9581 C.3       1 <0>         0.0330
     21 O5         -0.9572    5.2276   -3.2199 O.3       1 <0>        -0.3071
     22 C14        -1.7800    6.2635   -3.7602 C.3       1 <0>         0.0222
     23 C15         2.6150    8.5209   -3.1127 C.2       1 <0>        -0.1069
     24 C16         1.7883    9.4581   -3.6258 C.2       1 <0>        -0.1432
     25 C17         2.2661   10.7718   -3.8628 C.2       1 <0>         0.4718
     26 O6          3.4205   11.0550   -3.6040 O.co2     1 <0>        -0.6321
     27 H2          2.9794    4.0086   -6.5957 H         1 <0>         0.0533
     28 H3          1.3436    4.2333   -5.9309 H         1 <0>         0.0455
     29 H4          2.7691    4.5889   -4.9261 H         1 <0>         0.0534
     30 H5          1.8324    2.4310   -4.2496 H         1 <0>         0.0812
     31 H6          1.6943    0.5576   -5.8682 H         1 <0>         0.0487
     32 H7          0.6615    1.9163   -6.3739 H         1 <0>         0.0467
     33 H8          2.2291    1.6448   -7.1721 H         1 <0>         0.0496
     34 H9          4.3820    2.1839   -5.9060 H         1 <0>         0.0816
     35 H10         3.8244    0.9672   -4.7325 H         1 <0>         0.0601
     36 H11         3.4338    1.6210   -2.4347 H         1 <0>         0.4122
     37 H12         3.9993    6.4367   -2.1046 H         1 <0>         0.1535
     38 H13         0.1281    7.5778   -3.5753 H         1 <0>         0.1426
     39 H14        -0.1731    2.0271   -0.8607 H         1 <0>         0.0925
     40 H15         0.6671    3.4117   -0.1224 H         1 <0>         0.0680
     41 H16        -0.8873    3.6548   -0.9550 H         1 <0>         0.0422
     42 H17        -2.7812    5.8738   -3.9437 H         1 <0>         0.0983
     43 H18        -1.8359    7.0899   -3.0517 H         1 <0>         0.0555
     44 H19        -1.3503    6.6171   -4.6975 H         1 <0>         0.0577
     45 H20         3.6399    8.7724   -2.8830 H         1 <0>         0.1376
     46 H21         0.7634    9.2067   -3.8556 H         1 <0>         0.1026
     47 O7          6.7329    2.6791   -4.7813 O.co2     1 <0>        -0.7690
     48 O8          1.4404   11.7078   -4.3753 O.co2     1 <0>        -0.7701
@<TRIPOS>BOND
     1    1    2 1
     2    1   27 1
     3    1   28 1
     4    1   29 1
     5    2    3 1
     6    2    4 1
     7    2   30 1
     8    3   31 1
     9    3   32 1
    10    3   33 1
    11    4    5 1
    12    4   34 1
    13    4   35 1
    14    5    6 1
    15    5    7 1
    16    5    9 1
    17    7    8 2
    18    7   47 1
    19    9   10 1
    20    9   36 1
    21   10   11 2
    22   10   12 2
    23   10   13 1
    24   13   18 ar
    25   13   14 ar
    26   14   15 ar
    27   14   37 1
    28   15   16 ar
    29   15   23 1
    30   16   17 ar
    31   16   38 1
    32   17   18 ar
    33   17   21 1
    34   18   19 1
    35   19   20 1
    36   20   39 1
    37   20   40 1
    38   20   41 1
    39   21   22 1
    40   22   42 1
    41   22   43 1
    42   22   44 1
    43   23   24 2
    44   23   45 1
    45   24   25 1
    46   24   46 1
    47   25   26 2
    48   25   48 1
@<TRIPOS>MOLECULE
ZINC25501552
   42    44     0     0     0
SMALL
USER_CHARGES
(3S)-1-[4-[(2-carboxyphenyl)sulfamoyl]phenyl]-5-oxo-pyrrolidine-3-carboxylic acid
@<TRIPOS>ATOM
      1 C1         10.4811    5.0434    1.7405 C.ar      1 <0>        -0.1625
      2 C2         10.2689    5.8595    0.6401 C.ar      1 <0>        -0.0913
      3 C3          9.4763    6.9836    0.7462 C.ar      1 <0>        -0.2029
      4 C4          8.8834    7.3053    1.9611 C.ar      1 <0>         0.1990
      5 C5          9.1009    6.4841    3.0790 C.ar      1 <0>        -0.1425
      6 C6          9.9030    5.3459    2.9533 C.ar      1 <0>        -0.0550
      7 C7          8.4840    6.8167    4.3744 C.2       1 <0>         0.4989
      8 O1          7.7840    7.8047    4.4782 O.co2     1 <0>        -0.6268
      9 O2          8.6957    6.0255    5.4446 O.co2     1 <0>        -0.7509
     10 N1          8.0848    8.4357    2.0703 N.pl3     1 <0>        -1.0438
     11 S1          7.1224    8.8951    0.8034 S.o2      1 <0>         2.6961
     12 O3          7.9671    8.9878   -0.3355 O.2       1 <0>        -0.9701
     13 O4          6.3407    9.9891    1.2631 O.2       1 <0>        -0.9648
     14 C8          6.0022    7.5709    0.4932 C.ar      1 <0>        -0.7046
     15 C9          4.7810    7.5342    1.1409 C.ar      1 <0>         0.0181
     16 C10         3.9011    6.4971    0.9006 C.ar      1 <0>        -0.1819
     17 C11         4.2437    5.4907    0.0070 C.ar      1 <0>         0.2294
     18 C12         5.4729    5.5280   -0.6382 C.ar      1 <0>        -0.1847
     19 C13         6.3463    6.5704   -0.3972 C.ar      1 <0>         0.0123
     20 N2          3.3547    4.4384   -0.2383 N.am      1 <0>        -0.5598
     21 C14         2.0919    4.2363    0.4816 C.3       1 <0>         0.1086
     22 C15         1.6866    2.7725    0.2000 C.3       1 <0>        -0.1492
     23 H1          1.9399    2.0640    1.0024 H         1 <0>         0.1013
     24 C16         2.3951    2.5029   -1.1477 C.3       1 <0>        -0.1255
     25 C17         3.5478    3.4824   -1.1633 C.2       1 <0>         0.5245
     26 O5          4.5071    3.4146   -1.9024 O.2       1 <0>        -0.5183
     27 C18         0.1917    2.6444    0.0586 C.2       1 <0>         0.4710
     28 O6         -0.5113    3.6209    0.1685 O.co2     1 <0>        -0.6316
     29 O7         -0.3587    1.4456   -0.1895 O.co2     1 <0>        -0.7608
     30 H2         11.1035    4.1658    1.6462 H         1 <0>         0.1155
     31 H3         10.7275    5.6138   -0.3063 H         1 <0>         0.1190
     32 H4          9.3161    7.6140   -0.1159 H         1 <0>         0.1548
     33 H5         10.0720    4.7067    3.8073 H         1 <0>         0.1309
     34 H6          8.0913    9.0262    2.9984 H         1 <0>         0.4656
     35 H7          4.5152    8.3171    1.8357 H         1 <0>         0.1429
     36 H8          2.9478    6.4686    1.4073 H         1 <0>         0.1371
     37 H9          5.7439    4.7447   -1.3306 H         1 <0>         0.1616
     38 H10         7.3008    6.6019   -0.9015 H         1 <0>         0.1396
     39 H11         2.2506    4.4098    1.5562 H         1 <0>         0.0825
     40 H12         1.3374    4.9420    0.1038 H         1 <0>         0.1005
     41 H13         2.7401    1.4589   -1.1781 H         1 <0>         0.1082
     42 H14         1.6911    2.6806   -1.9741 H         1 <0>         0.1100
@<TRIPOS>BOND
     1    1    6 ar
     2    1    2 ar
     3    1   30 1
     4    2    3 ar
     5    2   31 1
     6    3    4 ar
     7    3   32 1
     8    4    5 ar
     9    4   10 1
    10    5    6 ar
    11    5    7 1
    12    6   33 1
    13    7    8 2
    14    7    9 1
    15   10   11 1
    16   10   34 1
    17   11   12 2
    18   11   13 2
    19   11   14 1
    20   14   19 ar
    21   14   15 ar
    22   15   16 ar
    23   15   35 1
    24   16   17 ar
    25   16   36 1
    26   17   18 ar
    27   17   20 1
    28   18   19 ar
    29   18   37 1
    30   19   38 1
    31   20   25 am
    32   20   21 1
    33   21   22 1
    34   21   39 1
    35   21   40 1
    36   22   23 1
    37   22   24 1
    38   22   27 1
    39   24   25 1
    40   24   41 1
    41   24   42 1
    42   25   26 2
    43   27   28 2
    44   27   29 1
@<TRIPOS>MOLECULE
ZINC13092740
   40    41     0     0     0
SMALL
USER_CHARGES

@<TRIPOS>ATOM
      1 C1          0.1117    1.1591   -0.7518 C.ar      1 <0>        -0.1179
      2 C2          1.2975    1.8675   -0.7558 C.ar      1 <0>        -0.0629
      3 C3          2.3811    1.4085   -0.0188 C.ar      1 <0>         0.1415
      4 C4          2.2688    0.2379    0.7203 C.ar      1 <0>        -0.0527
      5 C5          1.0805   -0.4656    0.7201 C.ar      1 <0>        -0.6587
      6 C6          0.0030   -0.0058   -0.0150 C.ar      1 <0>        -0.0381
      7 S1          0.9371   -1.9510    1.6570 S.o2      1 <0>         2.7054
      8 O1         -0.1022   -2.7113    1.0562 O.2       1 <0>        -0.9656
      9 O2          2.2548   -2.4572    1.8200 O.2       1 <0>        -0.9609
     10 N1          0.4024   -1.5282    3.1662 N.pl3     1 <0>        -1.2483
     11 N2          3.5839    2.1235   -0.0212 N.am      1 <0>        -0.6746
     12 C7          3.5686    3.4678   -0.1160 C.2       1 <0>         0.5401
     13 O3          2.5128    4.0647   -0.1030 O.2       1 <0>        -0.5010
     14 C8          4.8633    4.2293   -0.2383 C.3       1 <0>        -0.1464
     15 S2          4.5120    6.0057   -0.3463 S.3       1 <0>         0.0281
     16 C9          6.1043    6.7476   -0.4828 C.ar      1 <0>         0.2487
     17 N3          6.2070    8.0675   -0.5822 N.ar      1 <0>        -0.5765
     18 C10         7.4103    8.6213   -0.6849 C.ar      1 <0>         0.4212
     19 O4          7.5456    9.9659   -0.7872 O.3       1 <0>        -0.6580
     20 C11         8.5320    7.7912   -0.6848 C.ar      1 <0>        -0.0371
     21 N4          8.3674    6.4857   -0.5833 N.ar      1 <0>        -0.2058
     22 N5          7.1880    5.9808   -0.4798 N.ar      1 <0>        -0.4102
     23 C12         9.9151    8.3785   -0.7999 C.3       1 <0>        -0.0109
     24 C13        10.4591    8.6799    0.5980 C.3       1 <0>        -0.1653
     25 C14        11.8422    9.2672    0.4830 C.2       1 <0>         0.4976
     26 O5         12.3461    9.4296   -0.6153 O.co2     1 <0>        -0.7013
     27 O6         12.4572    9.5800    1.4882 O.co2     1 <0>        -0.7186
     28 H1         -0.7330    1.5179   -1.3212 H         1 <0>         0.1381
     29 H2          1.3819    2.7771   -1.3318 H         1 <0>         0.1481
     30 H3          3.1099   -0.1218    1.2942 H         1 <0>         0.1468
     31 H4         -0.9252   -0.5578   -0.0135 H         1 <0>         0.1417
     32 H5         -0.1410   -2.1468    3.6791 H         1 <0>         0.4201
     33 H6          0.6326   -0.6621    3.5373 H         1 <0>         0.4191
     34 H7          4.4288    1.6516    0.0455 H         1 <0>         0.4190
     35 H8          5.4836    4.0342    0.6364 H         1 <0>         0.1249
     36 H9          5.3904    3.9080   -1.1367 H         1 <0>         0.1255
     37 H10        10.5718    7.6663   -1.2995 H         1 <0>         0.0619
     38 H11         9.8712    9.3007   -1.3793 H         1 <0>         0.0773
     39 H12         9.8024    9.3921    1.0977 H         1 <0>         0.0562
     40 H13        10.5030    7.7578    1.1775 H         1 <0>         0.0498
@<TRIPOS>BOND
     1    1    6 ar
     2    1    2 ar
     3    1   28 1
     4    2    3 ar
     5    2   29 1
     6    3    4 ar
     7    3   11 1
     8    4    5 ar
     9    4   30 1
    10    5    6 ar
    11    5    7 1
    12    6   31 1
    13    7    8 2
    14    7    9 2
    15    7   10 1
    16   10   32 1
    17   10   33 1
    18   11   12 am
    19   11   34 1
    20   12   13 2
    21   12   14 1
    22   14   15 1
    23   14   35 1
    24   14   36 1
    25   15   16 1
    26   16   17 ar
    27   16   22 ar
    28   17   18 ar
    29   18   19 1
    30   18   20 ar
    31   20   21 ar
    32   20   23 1
    33   21   22 ar
    34   23   24 1
    35   23   37 1
    36   23   38 1
    37   24   25 1
    38   24   39 1
    39   24   40 1
    40   25   26 2
    41   25   27 1
@<TRIPOS>MOLECULE
ZINC13092704
   46    47     0     0     0
SMALL
USER_CHARGES

@<TRIPOS>ATOM
      1 C1         -0.0420    1.5322    0.0039 C.3       1 <0>        -0.1500
      2 C2         -0.0174    0.0024   -0.0082 C.3       1 <0>         0.0556
      3 O1         -1.3567   -0.4957    0.0075 O.3       1 <0>        -0.3447
      4 C3         -1.5118   -1.8347   -0.0005 C.2       1 <0>         0.5403
      5 O2         -0.5360   -2.5595   -0.0204 O.2       1 <0>        -0.4847
      6 C4         -2.8608   -2.4185    0.0147 C.2       1 <0>        -0.1603
      7 C5         -3.6290   -2.7422   -1.0648 C.2       1 <0>         0.0755
      8 N1         -4.8038   -3.2540   -0.6251 N.pl3     1 <0>        -0.5346
      9 H1         -5.5212   -3.5601   -1.2018 H         1 <0>         0.4202
     10 C6         -4.8406   -3.2808    0.7215 C.2       1 <0>         0.0768
     11 C7         -3.6618   -2.7817    1.2035 C.2       1 <0>        -0.1883
     12 C8         -3.2742   -2.6346    2.6070 C.2       1 <0>         0.4494
     13 O3         -3.6051   -1.6455    3.2274 O.2       1 <0>        -0.4233
     14 C9         -2.4642   -3.7114    3.2818 C.3       1 <0>        -0.1605
     15 S1         -2.2803   -3.3158    5.0426 S.3       1 <0>        -0.0013
     16 C10        -1.3237   -4.6503    5.6817 C.ar      1 <0>         0.2547
     17 N2         -1.0031   -4.6701    6.9698 N.ar      1 <0>        -0.5771
     18 C11        -0.2815   -5.6789    7.4461 C.ar      1 <0>         0.4211
     19 O4          0.0602   -5.7257    8.7567 O.3       1 <0>        -0.6613
     20 C12         0.1170   -6.6895    6.5703 C.ar      1 <0>        -0.0404
     21 N3         -0.2320   -6.6156    5.2996 N.ar      1 <0>        -0.2051
     22 N4         -0.9363   -5.6274    4.8707 N.ar      1 <0>        -0.4059
     23 C13         0.9368   -7.8514    7.0694 C.3       1 <0>        -0.0101
     24 C14         0.0039   -8.9737    7.5288 C.3       1 <0>        -0.1650
     25 C15         0.8236  -10.1356    8.0279 C.2       1 <0>         0.4978
     26 O5          2.0411  -10.0719    8.0171 O.co2     1 <0>        -0.7013
     27 O6          0.2693  -11.1393    8.4425 O.co2     1 <0>        -0.7196
     28 C16        -5.9883   -3.7841    1.5585 C.3       1 <0>        -0.0967
     29 C17        -3.2361   -2.5601   -2.5083 C.3       1 <0>        -0.0910
     30 H2          0.9795    1.9121   -0.0080 H         1 <0>         0.0782
     31 H3         -0.5746    1.8940   -0.8756 H         1 <0>         0.0635
     32 H4         -0.5486    1.8803    0.9041 H         1 <0>         0.0687
     33 H5          0.4892   -0.3456   -0.9084 H         1 <0>         0.0669
     34 H6          0.5152   -0.3594    0.8713 H         1 <0>         0.0718
     35 H7         -2.9734   -4.6693    3.1759 H         1 <0>         0.1245
     36 H8         -1.4796   -3.7700    2.8179 H         1 <0>         0.1255
     37 H9          1.5763   -8.2167    6.2658 H         1 <0>         0.0612
     38 H10         1.5548   -7.5270    7.9066 H         1 <0>         0.0767
     39 H11        -0.6356   -8.6085    8.3324 H         1 <0>         0.0560
     40 H12        -0.6141   -9.2981    6.6916 H         1 <0>         0.0496
     41 H13        -5.9025   -4.8638    1.6811 H         1 <0>         0.0857
     42 H14        -5.9625   -3.3041    2.5367 H         1 <0>         0.0893
     43 H15        -6.9301   -3.5485    1.0629 H         1 <0>         0.0736
     44 H16        -2.7330   -3.4592   -2.8641 H         1 <0>         0.0829
     45 H17        -4.1285   -2.3816   -3.1080 H         1 <0>         0.0739
     46 H18        -2.5624   -1.7077   -2.5967 H         1 <0>         0.0821
@<TRIPOS>BOND
     1    1    2 1
     2    1   30 1
     3    1   31 1
     4    1   32 1
     5    2    3 1
     6    2   33 1
     7    2   34 1
     8    3    4 1
     9    4    5 2
    10    4    6 1
    11    6   11 1
    12    6    7 2
    13    7    8 1
    14    7   29 1
    15    8    9 1
    16    8   10 1
    17   10   11 2
    18   10   28 1
    19   11   12 1
    20   12   13 2
    21   12   14 1
    22   14   15 1
    23   14   35 1
    24   14   36 1
    25   15   16 1
    26   16   17 ar
    27   16   22 ar
    28   17   18 ar
    29   18   19 1
    30   18   20 ar
    31   20   21 ar
    32   20   23 1
    33   21   22 ar
    34   23   24 1
    35   23   37 1
    36   23   38 1
    37   24   25 1
    38   24   39 1
    39   24   40 1
    40   25   26 2
    41   25   27 1
    42   28   41 1
    43   28   42 1
    44   28   43 1
    45   29   44 1
    46   29   45 1
    47   29   46 1
@<TRIPOS>MOLECULE
ZINC13274198
   50    51     0     0     0
SMALL
USER_CHARGES
2-[[2-[[4-(carboxymethyl)-5-propyl-1,2,4-triazol-3-yl]sulfanyl]acetyl]amino]-4,5-dimethoxy-benzoic acid
@<TRIPOS>ATOM
      1 C1          5.5513    0.4038   -1.5887 C.3       1 <0>        -0.1488
      2 C2          4.0235    0.4826   -1.5615 C.3       1 <0>        -0.1179
      3 C3          3.5388    0.4853   -0.1103 C.3       1 <0>        -0.0295
      4 C4          2.0340    0.5629   -0.0835 C.2       1 <0>         0.1867
      5 N1          1.2087   -0.4453   -0.0855 N.2       1 <0>        -0.2964
      6 N2         -0.0047   -0.0224   -0.0581 N.2       1 <0>        -0.3031
      7 C5         -0.0190    1.2902   -0.0369 C.2       1 <0>         0.1492
      8 N3          1.2819    1.7047   -0.0525 N.pl3     1 <0>        -0.4222
      9 C6          1.7705    3.0857   -0.0388 C.3       1 <0>         0.0541
     10 C7          1.9627    3.5364    1.3863 C.2       1 <0>         0.4558
     11 O1          1.7169    2.7815    2.2971 O.co2     1 <0>        -0.6092
     12 S1         -1.4469    2.3219   -0.0027 S.3       1 <0>         0.0767
     13 C8         -2.7457    1.0613   -0.0060 C.3       1 <0>        -0.1428
     14 C9         -4.0956    1.7307    0.0216 C.2       1 <0>         0.5338
     15 O2         -4.1720    2.9409    0.0415 O.2       1 <0>        -0.5259
     16 N4         -5.2179    0.9844    0.0241 N.am      1 <0>        -0.6351
     17 C10        -6.4634    1.5991    0.1442 C.ar      1 <0>         0.1838
     18 C11        -6.6867    2.8371   -0.4384 C.ar      1 <0>        -0.1923
     19 C12        -7.9244    3.4478   -0.3189 C.ar      1 <0>         0.1143
     20 C13        -8.9528    2.8215    0.3877 C.ar      1 <0>         0.0608
     21 C14        -8.7427    1.5903    0.9719 C.ar      1 <0>        -0.1098
     22 C15        -7.4969    0.9635    0.8507 C.ar      1 <0>        -0.1394
     23 C16        -7.2695   -0.3531    1.4666 C.2       1 <0>         0.4987
     24 O3         -6.1601   -0.8494    1.4477 O.co2     1 <0>        -0.6268
     25 O4        -10.1655    3.4279    0.5005 O.3       1 <0>        -0.3140
     26 C17       -11.1730    2.7317    1.2369 C.3       1 <0>         0.0276
     27 O5         -8.1381    4.6606   -0.8909 O.3       1 <0>        -0.3091
     28 C18        -7.0434    5.2459   -1.5989 C.3       1 <0>         0.0270
     29 H1          5.8966    0.4019   -2.6226 H         1 <0>         0.0535
     30 H2          5.9689    1.2654   -1.0677 H         1 <0>         0.0564
     31 H3          5.8767   -0.5120   -1.0953 H         1 <0>         0.0560
     32 H4          3.6059   -0.3789   -2.0825 H         1 <0>         0.0686
     33 H5          3.6981    1.3984   -2.0549 H         1 <0>         0.0602
     34 H6          3.9564    1.3469    0.4107 H         1 <0>         0.0837
     35 H7          3.8642   -0.4305    0.3832 H         1 <0>         0.0949
     36 H8          2.7216    3.1399   -0.5684 H         1 <0>         0.1010
     37 H9          1.0438    3.7331   -0.5297 H         1 <0>         0.1016
     38 H10        -2.6599    0.4535   -0.9067 H         1 <0>         0.1236
     39 H11        -2.6373    0.4257    0.8729 H         1 <0>         0.1311
     40 H12        -5.1590    0.0197   -0.0576 H         1 <0>         0.4276
     41 H13        -5.8945    3.3263   -0.9858 H         1 <0>         0.1528
     42 H14        -9.5398    1.1081    1.5183 H         1 <0>         0.1472
     43 H15       -12.0880    3.3239    1.2499 H         1 <0>         0.0911
     44 H16       -11.3695    1.7697    0.7637 H         1 <0>         0.0537
     45 H17       -10.8299    2.5706    2.2589 H         1 <0>         0.0537
     46 H18        -7.3477    6.2104   -2.0053 H         1 <0>         0.0926
     47 H19        -6.2041    5.3870   -0.9178 H         1 <0>         0.0601
     48 H20        -6.7434    4.5866   -2.4134 H         1 <0>         0.0507
     49 O6          2.4071    4.7766    1.6439 O.co2     1 <0>        -0.7540
     50 O7         -8.2914   -1.0090    2.0517 O.co2     1 <0>        -0.7523
@<TRIPOS>BOND
     1    1    2 1
     2    1   29 1
     3    1   30 1
     4    1   31 1
     5    2    3 1
     6    2   32 1
     7    2   33 1
     8    3    4 1
     9    3   34 1
    10    3   35 1
    11    4    8 1
    12    4    5 2
    13    5    6 1
    14    6    7 2
    15    7    8 1
    16    7   12 1
    17    8    9 1
    18    9   10 1
    19    9   36 1
    20    9   37 1
    21   10   11 2
    22   10   49 1
    23   12   13 1
    24   13   14 1
    25   13   38 1
    26   13   39 1
    27   14   15 2
    28   14   16 am
    29   16   17 1
    30   16   40 1
    31   17   22 ar
    32   17   18 ar
    33   18   19 ar
    34   18   41 1
    35   19   20 ar
    36   19   27 1
    37   20   21 ar
    38   20   25 1
    39   21   22 ar
    40   21   42 1
    41   22   23 1
    42   23   24 2
    43   23   50 1
    44   25   26 1
    45   26   43 1
    46   26   44 1
    47   26   45 1
    48   27   28 1
    49   28   46 1
    50   28   47 1
    51   28   48 1
@<TRIPOS>MOLECULE
ZINC13422644
   49    50     0     0     0
SMALL
USER_CHARGES
4-[2-oxo-2-[(3,4,5-trimethoxyphenyl)methylamino]ethoxy]benzene-1,3-dicarboxylic acid
@<TRIPOS>ATOM
      1 C1          2.7803    3.5164    6.4872 C.3       1 <0>         0.0229
      2 O1          2.4809    2.2711    7.1209 O.3       1 <0>        -0.3038
      3 C2          1.4862    1.5229    6.5729 C.ar      1 <0>         0.1482
      4 C3          0.8134    1.9785    5.4492 C.ar      1 <0>        -0.2138
      5 C4         -0.1984    1.2192    4.8920 C.ar      1 <0>        -0.0245
      6 C5         -0.5473    0.0059    5.4549 C.ar      1 <0>        -0.2138
      7 C6          0.1247   -0.4597    6.5750 C.ar      1 <0>         0.1482
      8 C7          1.1423    0.3009    7.1385 C.ar      1 <0>         0.0298
      9 O2          1.8005   -0.1499    8.2411 O.3       1 <0>        -0.3126
     10 C8          1.2645    0.2198    9.5131 C.3       1 <0>         0.0358
     11 O3         -0.2152   -1.6563    7.1245 O.3       1 <0>        -0.3038
     12 C9         -1.2702   -2.3842    6.4926 C.3       1 <0>         0.0229
     13 C10        -0.9273    1.7184    3.6711 C.3       1 <0>         0.1623
     14 N1         -0.2416    1.2460    2.4658 N.am      1 <0>        -0.7349
     15 C11        -0.7181    1.5718    1.2479 C.2       1 <0>         0.5133
     16 O4         -1.7145    2.2562    1.1498 O.2       1 <0>        -0.4885
     17 C12        -0.0127    1.0858    0.0080 C.3       1 <0>         0.0355
     18 O5         -0.7038    1.5592   -1.1497 O.3       1 <0>        -0.2469
     19 C13        -0.1957    1.2087   -2.3554 C.ar      1 <0>         0.1458
     20 C14         0.9482    0.4229   -2.4256 C.ar      1 <0>        -0.2509
     21 C15         1.4688    0.0639   -3.6477 C.ar      1 <0>        -0.0409
     22 C16         0.8498    0.4877   -4.8302 C.ar      1 <0>        -0.1741
     23 C17        -0.2973    1.2763   -4.7721 C.ar      1 <0>        -0.0019
     24 C18        -0.8281    1.6347   -3.5346 C.ar      1 <0>        -0.1631
     25 C19        -2.0454    2.4635   -3.4636 C.2       1 <0>         0.4940
     26 O6         -2.5032    2.7792   -2.3833 O.co2     1 <0>        -0.6156
     27 C20         1.4126    0.0996   -6.1373 C.2       1 <0>         0.4992
     28 O7          0.8756    0.4673   -7.1633 O.co2     1 <0>        -0.6341
     29 H1          3.5903    4.0112    7.0231 H         1 <0>         0.1021
     30 H2          3.0840    3.3356    5.4561 H         1 <0>         0.0613
     31 H3          1.8951    4.1522    6.4991 H         1 <0>         0.0583
     32 H4          1.0800    2.9280    5.0090 H         1 <0>         0.1398
     33 H5         -1.3416   -0.5822    5.0194 H         1 <0>         0.1398
     34 H6          1.2549    1.3062    9.6015 H         1 <0>         0.0434
     35 H7          0.2471   -0.1610    9.6032 H         1 <0>         0.0434
     36 H8          1.8824   -0.2037   10.3048 H         1 <0>         0.0902
     37 H9         -1.4401   -3.3174    7.0296 H         1 <0>         0.1021
     38 H10        -2.1818   -1.7867    6.5049 H         1 <0>         0.0583
     39 H11        -0.9933   -2.6035    5.4614 H         1 <0>         0.0613
     40 H12        -0.9421    2.8083    3.6771 H         1 <0>         0.0800
     41 H13        -1.9499    1.3411    3.6788 H         1 <0>         0.0800
     42 H14         0.5554    0.6986    2.5442 H         1 <0>         0.4004
     43 H15         0.0021   -0.0041    0.0020 H         1 <0>         0.0838
     44 H16         1.0099    1.4631    0.0003 H         1 <0>         0.0837
     45 H17         1.4303    0.0923   -1.5174 H         1 <0>         0.1138
     46 H18         2.3579   -0.5474   -3.6952 H         1 <0>         0.1254
     47 H19        -0.7763    1.6043   -5.6828 H         1 <0>         0.1420
     48 O8         -2.6502    2.8709   -4.5967 O.co2     1 <0>        -0.7685
     49 O9          2.5222   -0.6627   -6.1935 O.co2     1 <0>        -0.7751
@<TRIPOS>BOND
     1    1    2 1
     2    1   29 1
     3    1   30 1
     4    1   31 1
     5    2    3 1
     6    3    8 ar
     7    3    4 ar
     8    4    5 ar
     9    4   32 1
    10    5    6 ar
    11    5   13 1
    12    6    7 ar
    13    6   33 1
    14    7    8 ar
    15    7   11 1
    16    8    9 1
    17    9   10 1
    18   10   34 1
    19   10   35 1
    20   10   36 1
    21   11   12 1
    22   12   37 1
    23   12   38 1
    24   12   39 1
    25   13   14 1
    26   13   40 1
    27   13   41 1
    28   14   15 am
    29   14   42 1
    30   15   16 2
    31   15   17 1
    32   17   18 1
    33   17   43 1
    34   17   44 1
    35   18   19 1
    36   19   24 ar
    37   19   20 ar
    38   20   21 ar
    39   20   45 1
    40   21   22 ar
    41   21   46 1
    42   22   23 ar
    43   22   27 1
    44   23   24 ar
    45   23   47 1
    46   24   25 1
    47   25   26 2
    48   25   48 1
    49   27   28 2
    50   27   49 1
@<TRIPOS>MOLECULE
ZINC17106168
   52    54     0     0     0
SMALL
USER_CHARGES
(2S)-2-[[4-[2-(2-amino-4-oxo-1H-quinazolin-6-yl)ethyl]benzoyl]amino]pentanedioic acid
@<TRIPOS>ATOM
      1 C1          2.4274    4.1957    0.0019 C.ar      1 <0>        -0.1274
      2 C2          1.2386    3.4958    0.0090 C.ar      1 <0>        -0.0652
      3 C3          1.2540    2.1001    0.0014 C.ar      1 <0>        -0.1083
      4 C4          2.4738    1.4218   -0.0081 C.ar      1 <0>        -0.0828
      5 C5          3.6554    2.1338   -0.0204 C.ar      1 <0>        -0.1233
      6 C6          3.6331    3.5172   -0.0132 C.ar      1 <0>        -0.0777
      7 C7          4.9278    4.2884   -0.0214 C.3       1 <0>        -0.0722
      8 C8          5.3797    4.5417    1.4182 C.3       1 <0>        -0.0747
      9 C9          6.6744    5.3128    1.4100 C.ar      1 <0>        -0.1180
     10 C10         6.6500    6.6999    1.4177 C.ar      1 <0>        -0.0527
     11 C11         7.8241    7.4240    1.4099 C.ar      1 <0>        -0.1362
     12 C12         9.0420    6.7588    1.3948 C.ar      1 <0>         0.1923
     13 C13         9.0675    5.3536    1.3874 C.ar      1 <0>        -0.2289
     14 C14         7.8746    4.6351    1.4006 C.ar      1 <0>        -0.0234
     15 C15        10.3811    4.6828    1.3704 C.2       1 <0>         0.5644
     16 O1         10.4610    3.4659    1.3635 O.2       1 <0>        -0.5118
     17 N1         11.4852    5.4435    1.3635 N.am      1 <0>        -0.6592
     18 C16        11.4201    6.7580    1.3712 C.2       1 <0>         0.6256
     19 N2         10.2456    7.4405    1.3860 N.2       1 <0>        -0.6009
     20 N3         12.5875    7.4688    1.3634 N.pl3     1 <0>        -0.8521
     21 C17        -0.0162    1.3436    0.0094 C.2       1 <0>         0.5515
     22 O2         -1.0770    1.9369    0.0177 O.2       1 <0>        -0.5565
     23 N4          0.0021   -0.0041    0.0020 N.am      1 <0>        -0.6920
     24 C18        -1.2565   -0.7538    0.0100 C.3       1 <0>         0.1034
     25 H1         -1.9906   -0.1755   -0.5703 H         1 <0>         0.0845
     26 C19        -1.0316   -2.1346   -0.6092 C.3       1 <0>        -0.0846
     27 C20        -0.6634   -1.9775   -2.0859 C.3       1 <0>        -0.1525
     28 C21        -0.4418   -3.3377   -2.6958 C.2       1 <0>         0.4612
     29 O3         -0.5657   -4.3308   -2.0189 O.co2     1 <0>        -0.6389
     30 O4         -0.1069   -3.4459   -3.9912 O.co2     1 <0>        -0.7911
     31 C22        -1.7380   -0.9120    1.4292 C.2       1 <0>         0.4648
     32 O5         -1.0956   -0.4464    2.3405 O.co2     1 <0>        -0.6398
     33 O6         -2.8803   -1.5703    1.6810 O.co2     1 <0>        -0.7699
     34 H2          2.4168    5.2757    0.0078 H         1 <0>         0.1217
     35 H3          0.2981    4.0266    0.0201 H         1 <0>         0.1327
     36 H4          2.4926    0.3420   -0.0096 H         1 <0>         0.1290
     37 H5          4.5999    1.6102   -0.0319 H         1 <0>         0.1237
     38 H6          5.6974    3.7072   -0.5504 H         1 <0>         0.0731
     39 H7          4.7783    5.2504   -0.5334 H         1 <0>         0.0727
     40 H8          4.6101    5.1230    1.9472 H         1 <0>         0.0782
     41 H9          5.5291    3.5797    1.9303 H         1 <0>         0.0779
     42 H10         5.7024    7.2180    1.4295 H         1 <0>         0.1319
     43 H11         7.7957    8.5036    1.4153 H         1 <0>         0.1329
     44 H12         7.8897    3.5553    1.3991 H         1 <0>         0.1347
     45 H13        12.5619    8.5685    1.3696 H         1 <0>         0.4515
     46 H14        13.5526    6.9412    1.3510 H         1 <0>         0.4309
     47 H15         0.9621   -0.5411   -0.0100 H         1 <0>         0.4063
     48 H16        -0.2137   -2.6451   -0.0797 H         1 <0>         0.0583
     49 H17        -1.9525   -2.7299   -0.5222 H         1 <0>         0.0846
     50 H18        -1.4814   -1.4670   -2.6154 H         1 <0>         0.0600
     51 H19         0.2575   -1.3822   -2.1729 H         1 <0>         0.0580
     52 H20        12.4785    4.9711    1.3511 H         1 <0>         0.4340
@<TRIPOS>BOND
     1    1    6 ar
     2    1    2 ar
     3    1   34 1
     4    2    3 ar
     5    2   35 1
     6    3    4 ar
     7    3   21 1
     8    4    5 ar
     9    4   36 1
    10    5    6 ar
    11    5   37 1
    12    6    7 1
    13    7    8 1
    14    7   38 1
    15    7   39 1
    16    8    9 1
    17    8   40 1
    18    8   41 1
    19    9   14 ar
    20    9   10 ar
    21   10   11 ar
    22   10   42 1
    23   11   12 ar
    24   11   43 1
    25   12   19 1
    26   12   13 ar
    27   13   14 ar
    28   13   15 1
    29   14   44 1
    30   15   16 2
    31   15   17 am
    32   17   18 1
    33   17   52 1
    34   18   19 2
    35   18   20 1
    36   20   45 1
    37   20   46 1
    38   21   22 2
    39   21   23 am
    40   23   24 1
    41   23   47 1
    42   24   25 1
    43   24   26 1
    44   24   31 1
    45   26   27 1
    46   26   48 1
    47   26   49 1
    48   27   28 1
    49   27   50 1
    50   27   51 1
    51   28   29 2
    52   28   30 1
    53   31   32 2
    54   31   33 1
@<TRIPOS>MOLECULE
ZINC13092613
   39    40     0     0     0
SMALL
USER_CHARGES

@<TRIPOS>ATOM
      1 C1          1.0288   -0.5823   -0.8354 C.3       1 <0>         0.0256
      2 O1          0.0019   -0.0043   -0.0271 O.3       1 <0>        -0.3079
      3 C2         -1.2014   -0.6378   -0.0113 C.ar      1 <0>         0.1164
      4 C3         -1.3857   -1.7944   -0.7542 C.ar      1 <0>        -0.1748
      5 C4         -2.6072   -2.4384   -0.7387 C.ar      1 <0>        -0.0753
      6 C5         -3.6517   -1.9280    0.0208 C.ar      1 <0>         0.1356
      7 C6         -3.4673   -0.7706    0.7648 C.ar      1 <0>        -0.1022
      8 C7         -2.2429   -0.1298    0.7528 C.ar      1 <0>        -0.0490
      9 Cl1        -2.0095    1.3139    1.6881 Cl        1 <0>        -0.0579
     10 N1         -4.8913   -2.5807    0.0358 N.am      1 <0>        -0.6709
     11 C8         -4.9472   -3.9234   -0.0670 C.2       1 <0>         0.5394
     12 O2         -3.9237   -4.5741   -0.0761 O.2       1 <0>        -0.5016
     13 C9         -6.2815   -4.6163   -0.1705 C.3       1 <0>        -0.1453
     14 S1         -6.0245   -6.4077   -0.2949 S.3       1 <0>         0.0278
     15 C10        -7.6553   -7.0654   -0.4073 C.ar      1 <0>         0.2490
     16 N2         -7.8279   -8.3775   -0.5123 N.ar      1 <0>        -0.5766
     17 C11        -9.0598   -8.8678   -0.5967 C.ar      1 <0>         0.4212
     18 O3         -9.2663  -10.2029   -0.7043 O.3       1 <0>        -0.6586
     19 C12       -10.1369   -7.9809   -0.5719 C.ar      1 <0>        -0.0380
     20 N3         -9.9032   -6.6863   -0.4658 N.ar      1 <0>        -0.2059
     21 N4         -8.6976   -6.2437   -0.3805 N.ar      1 <0>        -0.4102
     22 C13       -11.5503   -8.4952   -0.6656 C.3       1 <0>        -0.0107
     23 C14       -12.0846   -8.7775    0.7400 C.3       1 <0>        -0.1654
     24 C15       -13.4980   -9.2918    0.6463 C.2       1 <0>         0.4976
     25 O4        -14.0288   -9.4207   -0.4438 O.co2     1 <0>        -0.7015
     26 O5        -14.1107   -9.5790    1.6604 O.co2     1 <0>        -0.7187
     27 H1          1.9341    0.0198   -0.7581 H         1 <0>         0.1001
     28 H2          1.2357   -1.5954   -0.4904 H         1 <0>         0.0577
     29 H3          0.6999   -0.6123   -1.8742 H         1 <0>         0.0568
     30 H4         -0.5737   -2.1914   -1.3453 H         1 <0>         0.1406
     31 H5         -2.7503   -3.3388   -1.3177 H         1 <0>         0.1480
     32 H6         -4.2794   -0.3730    1.3555 H         1 <0>         0.1447
     33 H7         -5.7093   -2.0663    0.1202 H         1 <0>         0.4167
     34 H8         -6.8755   -4.3951    0.7162 H         1 <0>         0.1238
     35 H9         -6.8069   -4.2622   -1.0575 H         1 <0>         0.1244
     36 H10       -12.1780   -7.7468   -1.1494 H         1 <0>         0.0617
     37 H11       -11.5643   -9.4146   -1.2510 H         1 <0>         0.0771
     38 H12       -11.4570   -9.5259    1.2238 H         1 <0>         0.0562
     39 H13       -12.0706   -7.8581    1.3254 H         1 <0>         0.0498
@<TRIPOS>BOND
     1    1    2 1
     2    1   27 1
     3    1   28 1
     4    1   29 1
     5    2    3 1
     6    3    8 ar
     7    3    4 ar
     8    4    5 ar
     9    4   30 1
    10    5    6 ar
    11    5   31 1
    12    6    7 ar
    13    6   10 1
    14    7    8 ar
    15    7   32 1
    16    8    9 1
    17   10   11 am
    18   10   33 1
    19   11   12 2
    20   11   13 1
    21   13   14 1
    22   13   34 1
    23   13   35 1
    24   14   15 1
    25   15   16 ar
    26   15   21 ar
    27   16   17 ar
    28   17   18 1
    29   17   19 ar
    30   19   20 ar
    31   19   22 1
    32   20   21 ar
    33   22   23 1
    34   22   36 1
    35   22   37 1
    36   23   24 1
    37   23   38 1
    38   23   39 1
    39   24   25 2
    40   24   26 1
@<TRIPOS>MOLECULE
ZINC21289577
   55    57     0     0     0
SMALL
USER_CHARGES

@<TRIPOS>ATOM
      1 C1         -0.0167    1.3794    0.0096 C.ar      1 <0>        -0.1288
      2 C2          1.1667    2.0884    0.0021 C.ar      1 <0>        -0.0644
      3 C3          2.3848    1.4070   -0.0132 C.ar      1 <0>        -0.1113
      4 C4          2.3966    0.0113   -0.0208 C.ar      1 <0>        -0.0822
      5 C5          1.2061   -0.6856   -0.0132 C.ar      1 <0>        -0.1233
      6 C6          0.0021   -0.0041    0.0020 C.ar      1 <0>        -0.0771
      7 C7         -1.2946   -0.7719    0.0103 C.3       1 <0>        -0.0779
      8 C8         -1.7472   -1.0241   -1.4293 C.3       1 <0>        -0.1083
      9 C9         -3.0637   -1.8037   -1.4209 C.3       1 <0>        -0.1027
     10 H1         -2.9439   -2.7168   -0.8379 H         1 <0>         0.0786
     11 C10        -3.4584   -2.1590   -2.8552 C.3       1 <0>        -0.0247
     12 C11        -4.8560   -2.7133   -2.8908 C.2       1 <0>        -0.3888
     13 C12        -5.2634   -3.4833   -3.9872 C.2       1 <0>         0.5542
     14 O1         -4.4938   -3.7080   -4.9080 O.2       1 <0>        -0.5483
     15 N1         -6.5202   -3.9730   -4.0088 N.am      1 <0>        -0.6617
     16 H2         -6.8176   -4.5101   -4.7598 H         1 <0>         0.4083
     17 C13        -7.3713   -3.7153   -2.9786 C.2       1 <0>         0.6591
     18 N2         -6.9953   -2.9932   -1.9450 N.2       1 <0>        -0.6234
     19 C14        -5.7580   -2.4843   -1.8674 C.2       1 <0>         0.4830
     20 N3         -5.3994   -1.7410   -0.7587 N.pl3     1 <0>        -0.7071
     21 C15        -4.1696   -0.9391   -0.8014 C.3       1 <0>         0.1249
     22 N4         -8.6447   -4.2172   -3.0188 N.pl3     1 <0>        -0.8237
     23 C16         3.6569    2.1603   -0.0218 C.2       1 <0>         0.5431
     24 O2          3.6435    3.3757   -0.0155 O.2       1 <0>        -0.5538
     25 N5          4.8314    1.4994   -0.0366 N.am      1 <0>        -0.6753
     26 C17         6.0919    2.2459   -0.0451 C.3       1 <0>         0.0735
     27 H3          5.9814    3.1523    0.5501 H         1 <0>         0.0779
     28 C18         7.2027    1.3778    0.5494 C.3       1 <0>        -0.0825
     29 C19         6.9032    1.1060    2.0250 C.3       1 <0>        -0.1772
     30 C20         7.9973    0.2510    2.6105 C.2       1 <0>         0.4912
     31 O3          8.9302   -0.1078    1.9123 O.co2     1 <0>        -0.6974
     32 O4          7.9496   -0.0820    3.7824 O.co2     1 <0>        -0.7198
     33 C21         6.4472    2.6155   -1.4622 C.2       1 <0>         0.4982
     34 O5          7.0818    3.6322   -1.6861 O.co2     1 <0>        -0.7012
     35 O6          6.1002    1.8979   -2.3847 O.co2     1 <0>        -0.6982
     36 H4         -0.9598    1.9054    0.0260 H         1 <0>         0.1213
     37 H5          1.1508    3.1682    0.0077 H         1 <0>         0.1330
     38 H6          3.3358   -0.5219   -0.0330 H         1 <0>         0.1292
     39 H7          1.2138   -1.7656   -0.0191 H         1 <0>         0.1237
     40 H8         -1.1489   -1.7256    0.5176 H         1 <0>         0.0721
     41 H9         -2.0557   -0.1941    0.5345 H         1 <0>         0.0701
     42 H10        -1.8929   -0.0704   -1.9367 H         1 <0>         0.0699
     43 H11        -0.9861   -1.6019   -1.9536 H         1 <0>         0.0746
     44 H12        -3.4095   -1.2637   -3.4750 H         1 <0>         0.0617
     45 H13        -2.7650   -2.9035   -3.2462 H         1 <0>         0.0741
     46 H14        -5.9517   -1.7496    0.0387 H         1 <0>         0.4068
     47 H15        -3.8845   -0.6432    0.2081 H         1 <0>         0.0921
     48 H16        -4.3315   -0.0525   -1.4144 H         1 <0>         0.0692
     49 H17        -8.9322   -4.7505   -3.7763 H         1 <0>         0.4141
     50 H18        -9.2594   -4.0394   -2.2897 H         1 <0>         0.4270
     51 H19         4.8421    0.5294   -0.0416 H         1 <0>         0.3915
     52 H20         7.2537    0.4325    0.0090 H         1 <0>         0.0603
     53 H21         8.1565    1.8981    0.4621 H         1 <0>         0.0727
     54 H22         6.8522    2.0513    2.5654 H         1 <0>         0.0527
     55 H23         5.9494    0.5857    2.1123 H         1 <0>         0.0510
@<TRIPOS>BOND
     1    1    6 ar
     2    1    2 ar
     3    1   36 1
     4    2    3 ar
     5    2   37 1
     6    3    4 ar
     7    3   23 1
     8    4    5 ar
     9    4   38 1
    10    5    6 ar
    11    5   39 1
    12    6    7 1
    13    7    8 1
    14    7   40 1
    15    7   41 1
    16    8    9 1
    17    8   42 1
    18    8   43 1
    19    9   10 1
    20    9   21 1
    21    9   11 1
    22   11   12 1
    23   11   44 1
    24   11   45 1
    25   12   19 2
    26   12   13 1
    27   13   14 2
    28   13   15 am
    29   15   16 1
    30   15   17 1
    31   17   18 2
    32   17   22 1
    33   18   19 1
    34   19   20 1
    35   20   21 1
    36   20   46 1
    37   21   47 1
    38   21   48 1
    39   22   49 1
    40   22   50 1
    41   23   24 2
    42   23   25 am
    43   25   26 1
    44   25   51 1
    45   26   27 1
    46   26   28 1
    47   26   33 1
    48   28   29 1
    49   28   52 1
    50   28   53 1
    51   29   30 1
    52   29   54 1
    53   29   55 1
    54   30   31 2
    55   30   32 1
    56   33   34 2
    57   33   35 1
@<TRIPOS>MOLECULE
ZINC12866884
   65    65     0     0     0
SMALL
USER_CHARGES
(2S)-2-[[1-[(2S,3R)-2-(tert-butoxycarbonylamino)-3-methyl-pentanoyl]piperidine-4-carbonyl]amino]butanedioic acid
@<TRIPOS>ATOM
      1 C1          6.1679    2.7735    0.3471 C.3       1 <0>        -0.1438
      2 C2          5.5257    2.6188    1.7271 C.3       1 <0>        -0.1119
      3 C3          4.0159    2.4279    1.5686 C.3       1 <0>        -0.1038
      4 H1          3.8241    1.6049    0.8802 H         1 <0>         0.0929
      5 C4          3.3964    2.1085    2.9306 C.3       1 <0>        -0.1464
      6 C5          3.3949    3.7117    1.0143 C.3       1 <0>         0.1476
      7 H2          3.9100    3.9980    0.0974 H         1 <0>         0.1179
      8 C6          1.9360    3.4770    0.7187 C.2       1 <0>         0.5166
      9 O1          1.0907    3.8456    1.5063 O.2       1 <0>        -0.5434
     10 N1          1.5706    2.8574   -0.4211 N.am      1 <0>        -0.5977
     11 C7          0.1620    2.5247   -0.6739 C.3       1 <0>         0.1137
     12 C8          0.0591    1.0318   -1.0016 C.3       1 <0>        -0.1107
     13 C9          1.0008    0.7023   -2.1621 C.3       1 <0>        -0.1042
     14 C10         2.4434    1.0088   -1.7535 C.3       1 <0>        -0.1249
     15 C11         2.5733    2.5015   -1.4343 C.3       1 <0>         0.1002
     16 C12         0.8771   -0.7589   -2.5097 C.2       1 <0>         0.5237
     17 O2          0.1115   -1.4668   -1.8904 O.2       1 <0>        -0.5613
     18 N2          1.6174   -1.2789   -3.5087 N.am      1 <0>        -0.6700
     19 C13         1.4971   -2.6993   -3.8466 C.3       1 <0>         0.1245
     20 H3          0.4650   -3.0202   -3.7059 H         1 <0>         0.0857
     21 C14         1.9031   -2.9125   -5.3063 C.3       1 <0>        -0.1498
     22 C15         0.9254   -2.2040   -6.2081 C.2       1 <0>         0.4633
     23 O3         -0.0010   -1.5915   -5.7322 O.co2     1 <0>        -0.6343
     24 C16         2.4007   -3.5070   -2.9509 C.2       1 <0>         0.4635
     25 O4          3.0758   -2.9529   -2.1159 O.co2     1 <0>        -0.6426
     26 N3          3.5263    4.7843    2.0035 N.am      1 <0>        -0.6903
     27 C17         4.6596    5.5114    2.0626 C.2       1 <0>         0.6524
     28 O5          5.5723    5.2773    1.2954 O.2       1 <0>        -0.5561
     29 O6          4.7803    6.4971    2.9716 O.3       1 <0>        -0.3652
     30 C18         6.0286    7.2388    2.9779 C.3       1 <0>         0.1377
     31 C19         6.2312    7.9077    1.6168 C.3       1 <0>        -0.1834
     32 C20         5.9804    8.3092    4.0700 C.3       1 <0>        -0.1406
     33 C21         7.1895    6.2811    3.2533 C.3       1 <0>        -0.1841
     34 H4          5.6703    3.5762   -0.1973 H         1 <0>         0.0628
     35 H5          7.2247    3.0138    0.4630 H         1 <0>         0.0492
     36 H6          6.0661    1.8408   -0.2077 H         1 <0>         0.0499
     37 H7          5.7185    3.5130    2.3199 H         1 <0>         0.0681
     38 H8          5.9508    1.7505    2.2305 H         1 <0>         0.0582
     39 H9          2.3209    1.9724    2.8176 H         1 <0>         0.0593
     40 H10         3.8388    1.1939    3.3255 H         1 <0>         0.0601
     41 H11         3.5883    2.9315    3.6190 H         1 <0>         0.0539
     42 H12        -0.2063    3.1100   -1.5165 H         1 <0>         0.0709
     43 H13        -0.4306    2.7456    0.2139 H         1 <0>         0.0928
     44 H14         0.3419    0.4469   -0.1263 H         1 <0>         0.0742
     45 H15        -0.9655    0.7912   -1.2849 H         1 <0>         0.0851
     46 H16         0.7330    1.3056   -3.0295 H         1 <0>         0.0933
     47 H17         2.7037    0.4242   -0.8712 H         1 <0>         0.0792
     48 H18         3.1158    0.7520   -2.5721 H         1 <0>         0.0870
     49 H19         3.5717    2.7071   -1.0483 H         1 <0>         0.0875
     50 H20         2.4017    3.0849   -2.3389 H         1 <0>         0.0785
     51 H21         2.2297   -0.7127   -4.0040 H         1 <0>         0.3849
     52 H22         2.9033   -2.5105   -5.4677 H         1 <0>         0.0584
     53 H23         1.8992   -3.9787   -5.5325 H         1 <0>         0.0849
     54 H24         2.7977    4.9712    2.6159 H         1 <0>         0.4134
     55 H25         5.4042    8.5900    1.4206 H         1 <0>         0.0577
     56 H26         7.1683    8.4644    1.6215 H         1 <0>         0.0675
     57 H27         6.2656    7.1451    0.8387 H         1 <0>         0.0909
     58 H28         5.8361    7.8327    5.0397 H         1 <0>         0.0655
     59 H29         6.9175    8.8660    4.0747 H         1 <0>         0.0783
     60 H30         5.1533    8.9915    3.8738 H         1 <0>         0.0653
     61 H31         7.2239    5.5185    2.4753 H         1 <0>         0.0921
     62 H32         8.1266    6.8378    3.2580 H         1 <0>         0.0674
     63 H33         7.0452    5.8046    4.2230 H         1 <0>         0.0580
     64 O7          1.0838   -2.2535   -7.5401 O.co2     1 <0>        -0.7917
     65 O8          2.4555   -4.8418   -3.0806 O.co2     1 <0>        -0.7775
@<TRIPOS>BOND
     1    1    2 1
     2    1   34 1
     3    1   35 1
     4    1   36 1
     5    2    3 1
     6    2   37 1
     7    2   38 1
     8    3    4 1
     9    3    5 1
    10    3    6 1
    11    5   39 1
    12    5   40 1
    13    5   41 1
    14    6    7 1
    15    6    8 1
    16    6   26 1
    17    8    9 2
    18    8   10 am
    19   10   15 1
    20   10   11 1
    21   11   12 1
    22   11   42 1
    23   11   43 1
    24   12   13 1
    25   12   44 1
    26   12   45 1
    27   13   14 1
    28   13   16 1
    29   13   46 1
    30   14   15 1
    31   14   47 1
    32   14   48 1
    33   15   49 1
    34   15   50 1
    35   16   17 2
    36   16   18 am
    37   18   19 1
    38   18   51 1
    39   19   20 1
    40   19   21 1
    41   19   24 1
    42   21   22 1
    43   21   52 1
    44   21   53 1
    45   22   23 2
    46   22   64 1
    47   24   25 2
    48   24   65 1
    49   26   27 am
    50   26   54 1
    51   27   28 2
    52   27   29 1
    53   29   30 1
    54   30   31 1
    55   30   32 1
    56   30   33 1
    57   31   55 1
    58   31   56 1
    59   31   57 1
    60   32   58 1
    61   32   59 1
    62   32   60 1
    63   33   61 1
    64   33   62 1
    65   33   63 1
@<TRIPOS>MOLECULE
ZINC13318044
   49    51     0     0     0
SMALL
USER_CHARGES
2-[2-[(4-carboxyphenyl)amino]-2-oxo-ethoxy]-5-pyrrolidin-1-ylsulfonyl-benzoic acid
@<TRIPOS>ATOM
      1 C1         -4.8929    7.2316   10.2763 C.ar      1 <0>        -0.0706
      2 C2         -4.0393    6.9617    9.2308 C.ar      1 <0>        -0.1629
      3 C3         -4.4134    6.0589    8.2402 C.ar      1 <0>         0.1388
      4 C4         -5.6532    5.4298    8.2999 C.ar      1 <0>        -0.1358
      5 C5         -6.5097    5.6909    9.3453 C.ar      1 <0>        -0.0569
      6 C6         -6.1371    6.5974   10.3423 C.ar      1 <0>        -0.1298
      7 C7         -7.0541    6.8836   11.4611 C.2       1 <0>         0.4921
      8 O1         -6.7286    7.6715   12.3270 O.co2     1 <0>        -0.6385
      9 N1         -3.5465    5.7883    7.1825 N.am      1 <0>        -0.6711
     10 C8         -3.5155    4.5573    6.6347 C.2       1 <0>         0.5038
     11 O2         -4.1701    3.6601    7.1218 O.2       1 <0>        -0.4653
     12 C9         -2.6673    4.2957    5.4168 C.3       1 <0>         0.0322
     13 O3         -2.8012    2.9271    5.0281 O.3       1 <0>        -0.2346
     14 C10        -2.0974    2.5240    3.9409 C.ar      1 <0>         0.2109
     15 C11        -1.2931    3.4247    3.2584 C.ar      1 <0>        -0.2497
     16 C12        -0.5733    3.0118    2.1551 C.ar      1 <0>         0.0134
     17 C13        -0.6565    1.7008    1.7141 C.ar      1 <0>        -0.7336
     18 C14        -1.4502    0.7925    2.3795 C.ar      1 <0>         0.0566
     19 C15        -2.1800    1.1953    3.5014 C.ar      1 <0>        -0.1595
     20 C16        -3.0316    0.2290    4.2180 C.2       1 <0>         0.4857
     21 O4         -3.6645    0.5830    5.1930 O.co2     1 <0>        -0.5914
     22 S1          0.2629    1.1914    0.2999 S.o2      1 <0>         2.7151
     23 O5          0.4451   -0.2129    0.4182 O.2       1 <0>        -0.9533
     24 O6          1.3540    2.0936    0.1781 O.2       1 <0>        -0.9659
     25 N2         -0.7015    1.4336   -1.0244 N.pl3     1 <0>        -1.0139
     26 C17        -1.6318    0.4504   -1.5982 C.3       1 <0>         0.1149
     27 C18        -2.2909    1.1072   -2.8293 C.3       1 <0>        -0.1281
     28 C19        -1.2736    2.2126   -3.2171 C.3       1 <0>        -0.1286
     29 C20        -0.7648    2.6687   -1.8269 C.3       1 <0>         0.1142
     30 H1         -4.6017    7.9322   11.0449 H         1 <0>         0.1286
     31 H2         -3.0778    7.4509    9.1793 H         1 <0>         0.1178
     32 H3         -5.9422    4.7330    7.5270 H         1 <0>         0.1305
     33 H4         -7.4701    5.1992    9.3931 H         1 <0>         0.1338
     34 H5         -2.9657    6.4860    6.8409 H         1 <0>         0.4048
     35 H6         -1.6235    4.5071    5.6487 H         1 <0>         0.0918
     36 H7         -2.9956    4.9390    4.6004 H         1 <0>         0.0929
     37 H8         -1.2263    4.4493    3.5932 H         1 <0>         0.1335
     38 H9          0.0549    3.7159    1.6298 H         1 <0>         0.1346
     39 H10        -1.5082   -0.2294    2.0349 H         1 <0>         0.1532
     40 H11        -1.0863   -0.4437   -1.9003 H         1 <0>         0.0731
     41 H12        -2.3958    0.1911   -0.8653 H         1 <0>         0.0729
     42 H13        -3.2546    1.5445   -2.5680 H         1 <0>         0.0772
     43 H14        -2.4008    0.3836   -3.6370 H         1 <0>         0.0794
     44 H15        -1.7671    3.0316   -3.7405 H         1 <0>         0.0804
     45 H16        -0.4602    1.8024   -3.8156 H         1 <0>         0.0745
     46 H17        -1.4638    3.3759   -1.3803 H         1 <0>         0.0673
     47 H18         0.2254    3.1160   -1.9133 H         1 <0>         0.0817
     48 O7         -8.2529    6.2715   11.5231 O.co2     1 <0>        -0.7562
     49 O8         -3.1084   -1.0471    3.7919 O.co2     1 <0>        -0.7600
@<TRIPOS>BOND
     1    1    6 ar
     2    1    2 ar
     3    1   30 1
     4    2    3 ar
     5    2   31 1
     6    3    4 ar
     7    3    9 1
     8    4    5 ar
     9    4   32 1
    10    5    6 ar
    11    5   33 1
    12    6    7 1
    13    7    8 2
    14    7   48 1
    15    9   10 am
    16    9   34 1
    17   10   11 2
    18   10   12 1
    19   12   13 1
    20   12   35 1
    21   12   36 1
    22   13   14 1
    23   14   19 ar
    24   14   15 ar
    25   15   16 ar
    26   15   37 1
    27   16   17 ar
    28   16   38 1
    29   17   18 ar
    30   17   22 1
    31   18   19 ar
    32   18   39 1
    33   19   20 1
    34   20   21 2
    35   20   49 1
    36   22   23 2
    37   22   24 2
    38   22   25 1
    39   25   29 1
    40   25   26 1
    41   26   27 1
    42   26   40 1
    43   26   41 1
    44   27   28 1
    45   27   42 1
    46   27   43 1
    47   28   29 1
    48   28   44 1
    49   28   45 1
    50   29   46 1
    51   29   47 1
@<TRIPOS>MOLECULE
ZINC16924908
   45    47     0     0     0
SMALL
USER_CHARGES
5-[[2-[(5R)-3-(4-methoxyphenyl)-2,4-dioxo-thiazolidin-5-yl]acetyl]amino]benzene-1,3-dicarboxylic acid
@<TRIPOS>ATOM
      1 C1         -4.9892   -3.8343   -0.9298 C.3       1 <0>         0.0247
      2 O1         -4.5940   -3.2489    0.3124 O.3       1 <0>        -0.3144
      3 C2         -3.4170   -2.5686    0.3274 C.ar      1 <0>         0.1419
      4 C3         -2.9737   -1.9755    1.5005 C.ar      1 <0>        -0.1410
      5 C4         -1.7781   -1.2848    1.5163 C.ar      1 <0>        -0.0526
      6 C5         -1.0200   -1.1836    0.3579 C.ar      1 <0>         0.0615
      7 C6         -1.4669   -1.7719   -0.8172 C.ar      1 <0>        -0.0508
      8 C7         -2.6594   -2.4681   -0.8304 C.ar      1 <0>        -0.1985
      9 N1          0.1953   -0.4817    0.3735 N.am      1 <0>        -0.5379
     10 C8          1.2991   -1.1446    0.6750 C.2       1 <0>         0.5303
     11 O2          1.2931   -2.3286    0.9359 O.2       1 <0>        -0.4497
     12 C9          2.5775   -0.3187    0.6726 C.3       1 <0>        -0.0658
     13 H1          3.0362   -0.2951    1.6611 H         1 <0>         0.1734
     14 S1          1.8909    1.3225    0.2138 S.3       1 <0>        -0.0892
     15 C10         0.1780    0.8320    0.0811 C.2       1 <0>         0.5446
     16 O3         -0.7791    1.5226   -0.2104 O.2       1 <0>        -0.4188
     17 C11         3.5643   -0.8237   -0.3820 C.3       1 <0>        -0.1189
     18 C12         4.8579   -0.0593   -0.2664 C.2       1 <0>         0.5030
     19 O4          4.9787    0.8043    0.5765 O.2       1 <0>        -0.5042
     20 N2          5.8805   -0.3354   -1.0998 N.am      1 <0>        -0.6552
     21 C13         7.1140    0.3046   -0.9302 C.ar      1 <0>         0.0798
     22 C14         7.1559    1.6250   -0.5075 C.ar      1 <0>        -0.0751
     23 C15         8.3846    2.2649   -0.3319 C.ar      1 <0>        -0.1276
     24 C16         9.5693    1.5789   -0.5932 C.ar      1 <0>        -0.0333
     25 C17         9.5231    0.2540   -1.0233 C.ar      1 <0>        -0.1270
     26 C18         8.2910   -0.3814   -1.1909 C.ar      1 <0>        -0.1012
     27 C19        10.7764   -0.4772   -1.3022 C.2       1 <0>         0.4981
     28 O5         10.7353   -1.6318   -1.6774 O.co2     1 <0>        -0.6478
     29 C20         8.4285    3.6696    0.1243 C.2       1 <0>         0.4968
     30 O6          7.3955    4.2668    0.3519 O.co2     1 <0>        -0.6403
     31 H2         -5.0929   -3.0532   -1.6829 H         1 <0>         0.0578
     32 H3         -4.2329   -4.5505   -1.2509 H         1 <0>         0.0581
     33 H4         -5.9434   -4.3458   -0.8031 H         1 <0>         0.1012
     34 H5         -3.5636   -2.0543    2.4017 H         1 <0>         0.1408
     35 H6         -1.4327   -0.8237    2.4298 H         1 <0>         0.1360
     36 H7         -0.8795   -1.6896   -1.7198 H         1 <0>         0.1317
     37 H8         -3.0045   -2.9305   -1.7433 H         1 <0>         0.1375
     38 H9          3.7540   -1.8852   -0.2233 H         1 <0>         0.1261
     39 H10         3.1418   -0.6747   -1.3757 H         1 <0>         0.1109
     40 H11         5.7619   -0.9776   -1.8170 H         1 <0>         0.4040
     41 H12         6.2373    2.1574   -0.3097 H         1 <0>         0.1379
     42 H13        10.5208    2.0729   -0.4631 H         1 <0>         0.1404
     43 H14         8.2544   -1.4080   -1.5242 H         1 <0>         0.1217
     44 O7         11.9646    0.1365   -1.1403 O.co2     1 <0>        -0.7526
     45 O8          9.6140    4.2880    0.2878 O.co2     1 <0>        -0.7564
@<TRIPOS>BOND
     1    1    2 1
     2    1   31 1
     3    1   32 1
     4    1   33 1
     5    2    3 1
     6    3    8 ar
     7    3    4 ar
     8    4    5 ar
     9    4   34 1
    10    5    6 ar
    11    5   35 1
    12    6    7 ar
    13    6    9 1
    14    7    8 ar
    15    7   36 1
    16    8   37 1
    17    9   15 am
    18    9   10 am
    19   10   11 2
    20   10   12 1
    21   12   13 1
    22   12   14 1
    23   12   17 1
    24   14   15 1
    25   15   16 2
    26   17   18 1
    27   17   38 1
    28   17   39 1
    29   18   19 2
    30   18   20 am
    31   20   21 1
    32   20   40 1
    33   21   26 ar
    34   21   22 ar
    35   22   23 ar
    36   22   41 1
    37   23   24 ar
    38   23   29 1
    39   24   25 ar
    40   24   42 1
    41   25   26 ar
    42   25   27 1
    43   26   43 1
    44   27   28 2
    45   27   44 1
    46   29   30 2
    47   29   45 1
@<TRIPOS>MOLECULE
ZINC39703818
   50    52     0     0     0
SMALL
USER_CHARGES

@<TRIPOS>ATOM
      1 C1         -0.0187    1.5258    0.0104 C.3       1 <0>        -0.1530
      2 C2          0.0021   -0.0041    0.0020 C.3       1 <0>         0.0606
      3 O1         -1.3386   -0.4987    0.0122 O.3       1 <0>        -0.3510
      4 C3         -1.4964   -1.8317    0.0065 C.2       1 <0>         0.4754
      5 O2         -0.5283   -2.5546   -0.0066 O.2       1 <0>        -0.4817
      6 C4         -2.8809   -2.4266    0.0165 C.3       1 <0>        -0.0455
      7 H1         -3.4239   -2.0790   -0.8624 H         1 <0>         0.1302
      8 C5         -3.6236   -1.9561    1.2878 C.3       1 <0>         0.1769
      9 H2         -3.1893   -1.0406    1.6894 H         1 <0>         0.1360
     10 S1         -3.2689   -3.4033    2.3686 S.3       1 <0>        -0.0447
     11 C6         -2.9321   -4.6028    1.0931 C.2       1 <0>        -0.1101
     12 C7         -2.7712   -3.9386   -0.0345 C.2       1 <0>        -0.1830
     13 C8         -2.5017   -4.9466   -1.1583 C.3       1 <0>        -0.0553
     14 C9         -2.0725   -6.2454   -0.4489 C.3       1 <0>        -0.1150
     15 C10        -2.7771   -6.0938    0.9092 C.3       1 <0>        -0.0498
     16 N1         -5.0604   -1.8031    1.0460 N.am      1 <0>        -0.7228
     17 C11        -5.9488   -2.2828    1.9387 C.2       1 <0>         0.5295
     18 O3         -5.5589   -2.8412    2.9422 O.2       1 <0>        -0.4747
     19 C12        -7.4268   -2.1254    1.6899 C.3       1 <0>        -0.1429
     20 S2         -8.3533   -2.8683    3.0612 S.3       1 <0>         0.0292
     21 C13       -10.0407   -2.6059    2.6271 C.ar      1 <0>         0.2491
     22 N2        -11.0011   -3.0381    3.4354 N.ar      1 <0>        -0.5767
     23 C14       -12.2717   -2.8374    3.1030 C.ar      1 <0>         0.4210
     24 O4        -13.2729   -3.2672    3.9088 O.3       1 <0>        -0.6598
     25 C15       -12.5548   -2.1748    1.9078 C.ar      1 <0>        -0.0397
     26 N3        -11.5577   -1.7681    1.1448 N.ar      1 <0>        -0.2065
     27 N4        -10.3372   -1.9734    1.4982 N.ar      1 <0>        -0.4106
     28 C16       -13.9823   -1.9272    1.4931 C.3       1 <0>        -0.0102
     29 C17       -14.4485   -0.5802    2.0490 C.3       1 <0>        -0.1652
     30 C18       -15.8760   -0.3325    1.6343 C.2       1 <0>         0.4976
     31 O5        -16.4658   -1.1570    0.9568 O.co2     1 <0>        -0.7015
     32 O6        -16.4411    0.6923    1.9762 O.co2     1 <0>        -0.7190
     33 H3          1.0039    1.9031    0.0027 H         1 <0>         0.0789
     34 H4         -0.5459    1.8868   -0.8726 H         1 <0>         0.0675
     35 H5         -0.5289    1.8773    0.9072 H         1 <0>         0.0689
     36 H6          0.5123   -0.3556   -0.8948 H         1 <0>         0.0671
     37 H7          0.5293   -0.3651    0.8851 H         1 <0>         0.0691
     38 H8         -3.4085   -5.1157   -1.7390 H         1 <0>         0.0763
     39 H9         -1.7007   -4.5867   -1.8040 H         1 <0>         0.0694
     40 H10        -2.4386   -7.1224   -0.9826 H         1 <0>         0.0809
     41 H11        -0.9900   -6.2862   -0.3280 H         1 <0>         0.0753
     42 H12        -2.1597   -6.5129    1.7037 H         1 <0>         0.0789
     43 H13        -3.7534   -6.5782    0.8894 H         1 <0>         0.0896
     44 H14        -5.3722   -1.3565    0.2434 H         1 <0>         0.4104
     45 H15        -7.6722   -1.0658    1.6175 H         1 <0>         0.1201
     46 H16        -7.6937   -2.6246    0.7585 H         1 <0>         0.1172
     47 H17       -14.0473   -1.9134    0.4051 H         1 <0>         0.0611
     48 H18       -14.6175   -2.7215    1.8850 H         1 <0>         0.0767
     49 H19       -14.3834   -0.5940    3.1370 H         1 <0>         0.0562
     50 H20       -13.8132    0.2142    1.6571 H         1 <0>         0.0496
@<TRIPOS>BOND
     1    1    2 1
     2    1   33 1
     3    1   34 1
     4    1   35 1
     5    2    3 1
     6    2   36 1
     7    2   37 1
     8    3    4 1
     9    4    5 2
    10    4    6 1
    11    6    7 1
    12    6   12 1
    13    6    8 1
    14    8    9 1
    15    8   10 1
    16    8   16 1
    17   10   11 1
    18   11   15 1
    19   11   12 2
    20   12   13 1
    21   13   14 1
    22   13   38 1
    23   13   39 1
    24   14   15 1
    25   14   40 1
    26   14   41 1
    27   15   42 1
    28   15   43 1
    29   16   17 am
    30   16   44 1
    31   17   18 2
    32   17   19 1
    33   19   20 1
    34   19   45 1
    35   19   46 1
    36   20   21 1
    37   21   22 ar
    38   21   27 ar
    39   22   23 ar
    40   23   24 1
    41   23   25 ar
    42   25   26 ar
    43   25   28 1
    44   26   27 ar
    45   28   29 1
    46   28   47 1
    47   28   48 1
    48   29   30 1
    49   29   49 1
    50   29   50 1
    51   30   31 2
    52   30   32 1
