@<TRIPOS>MOLECULE
1ZW5-ZOL
 22 22 0 0 0
SMALL
SF_CHARGES


@<TRIPOS>ATOM
1    O        17.3480   33.9430   -8.8600  O.2        1 SUBUNIT     -1.0099
2    P        16.1440   34.1960   -9.6610  P.3        1 SUBUNIT      0.9864
3    O        16.0430   35.5460  -10.3420  O.2        1 SUBUNIT     -1.0099
4    O        16.0210   33.0190  -10.6360  O.2        1 SUBUNIT     -1.0099
5    C        14.9540   34.2900   -8.2760  C.3        1 SUBUNIT      0.1764
6    P        15.3580   35.6930   -7.1820  P.3        1 SUBUNIT      0.9864
7    O        14.4650   35.6890   -5.9680  O.2        1 SUBUNIT     -1.0099
8    O        16.8340   35.6120   -6.7370  O.2        1 SUBUNIT     -1.0099
9    O        15.0420   36.9090   -7.9430  O.2        1 SUBUNIT     -1.0099
10   O        13.6410   34.5000   -8.7870  O.3        1 SUBUNIT     -0.5671
11   C        14.9210   33.0430   -7.3350  C.3        1 SUBUNIT      0.1186
12   N        14.5910   31.7640   -7.9840  N.pl3      1 SUBUNIT     -0.2492
13   C        13.7130   31.5570   -8.9780  C.2        1 SUBUNIT      0.2717
14   N        13.7180   30.2550   -9.2930  N.2        1 SUBUNIT     -0.5060
15   C        14.5700   29.6330   -8.4590  C.2        1 SUBUNIT      0.1651
16   C        15.1240   30.5850   -7.6440  C.2        1 SUBUNIT     -0.0244
17   H        13.3597   35.3906   -8.5650  H          1 SUBUNIT      0.3888
18   H        15.9070   32.9241   -6.8739  H          1 SUBUNIT      0.0351
19   H        14.1706   33.2104   -6.5553  H          1 SUBUNIT      0.0351
20   H        13.1050   32.3118   -9.4454  H          1 SUBUNIT      0.0685
21   H        14.7739   28.5766   -8.4418  H          1 SUBUNIT      0.0794
22   H        15.8540   30.4253   -6.8698  H          1 SUBUNIT      0.0948
@<TRIPOS>BOND
     1    1    2 2
     2    2    3 1
     3    2    4 1
     4    2    5 1
     5    5    6 1
     6    5   10 1
     7    5   11 1
     8    6    7 2
     9    6    8 1
    10    6    9 1
    11   11   12 1
    12   12   13 1
    13   12   16 1
    14   13   14 2
    15   14   15 1
    16   15   16 2
    17   10   17 1
    18   11   18 1
    19   11   19 1
    20   13   20 1
    21   15   21 1
    22   16   22 1
