@<TRIPOS>MOLECULE
1UDT-VIA
 64 67 0 0 0
SMALL
SF_CHARGES


@<TRIPOS>ATOM
1    C        -0.1320   61.4670   80.1200  C.3        1 SUBUNIT     -0.0661
2    C        -0.1690   61.7920   81.5890  C.3        1 SUBUNIT     -0.0372
3    C        -1.2610   62.8640   81.9270  C.3        1 SUBUNIT     -0.0312
4    C        -1.1140   63.0310   83.4050  C.2        1 SUBUNIT      0.2387
5    N        -1.7980   62.2800   84.3700  N.2        1 SUBUNIT     -0.3512
6    N        -1.4140   62.6960   85.6120  N.pl3      1 SUBUNIT     -0.1066
7    C        -1.9480   62.1110   86.8450  C.3        1 SUBUNIT      0.0944
8    C        -0.4950   63.7000   85.4400  C.2        1 SUBUNIT      0.0438
9    C         0.2600   64.5190   86.3460  C.2        1 SUBUNIT      0.6716
10   O         0.1800   64.4220   87.5490  O.2        1 SUBUNIT     -0.5349
11   N         1.1250   65.4740   85.8160  N.am       1 SUBUNIT     -0.5470
12   C         1.3080   65.6840   84.4420  C.2        1 SUBUNIT      0.4461
13   N         0.5970   64.9070   83.5200  N.2        1 SUBUNIT     -0.5071
14   C        -0.2930   63.9280   84.0460  C.2        1 SUBUNIT      0.0928
15   C         2.2230   66.7020   84.0580  C.2        1 SUBUNIT     -0.0385
16   C         1.7310   67.6550   83.0840  C.2        1 SUBUNIT     -0.1017
17   C         2.5680   68.7580   82.6170  C.2        1 SUBUNIT     -0.0643
18   C         3.9520   68.8600   83.1800  C.2        1 SUBUNIT     -0.0969
19   C         4.4660   67.9110   84.1620  C.2        1 SUBUNIT     -0.1081
20   C         3.6090   66.8060   84.6330  C.2        1 SUBUNIT      0.1552
21   O         4.0190   65.8300   85.6200  O.3        1 SUBUNIT     -0.3835
22   C         5.3040   65.8030   86.2730  C.3        1 SUBUNIT      0.2037
23   C         5.2340   64.6230   87.2280  C.3        1 SUBUNIT     -0.1109
24   S         2.0230   69.8310   81.5610  S.o2       1 SUBUNIT      1.3164
25   O         2.3130   69.6000   80.2940  O.2        1 SUBUNIT     -0.6255
26   O         0.7120   69.8610   81.6110  O.2        1 SUBUNIT     -0.6255
27   N         2.6900   71.1590   82.1270  N.pl3      1 SUBUNIT     -0.5721
28   C         1.7240   72.0870   82.9630  C.3        1 SUBUNIT      0.1425
29   C         0.8200   73.0570   82.1780  C.3        1 SUBUNIT      0.1507
30   N         1.4260   73.6860   80.9560  N.4        1 SUBUNIT     -0.3239
31   C         1.5570   75.1560   81.2010  C.3        1 SUBUNIT      0.1241
32   C         2.7520   73.1450   80.4160  C.3        1 SUBUNIT      0.1507
33   C         3.5390   72.0920   81.2850  C.3        1 SUBUNIT      0.1425
34   H        -1.0948   61.0702   79.7815  H          1 SUBUNIT      0.0514
35   H         0.6360   60.7172   79.9032  H          1 SUBUNIT      0.0514
36   H         0.0917   62.3594   79.5262  H          1 SUBUNIT      0.0514
37   H        -0.3832   60.8700   82.1396  H          1 SUBUNIT      0.0497
38   H         0.8153   62.1722   81.8817  H          1 SUBUNIT      0.0497
39   H        -1.0698   63.8108   81.4112  H          1 SUBUNIT      0.0468
40   H        -2.2661   62.5083   81.6774  H          1 SUBUNIT      0.0468
41   H        -3.0344   62.2361   86.9002  H          1 SUBUNIT      0.0385
42   H        -1.5091   62.5877   87.7277  H          1 SUBUNIT      0.0385
43   H        -1.7295   61.0393   86.8976  H          1 SUBUNIT      0.0385
44   H         1.2878   66.3120   86.3520  H          1 SUBUNIT      0.3250
45   H         0.7316   67.5449   82.7007  H          1 SUBUNIT      0.1119
46   H         4.6005   69.6559   82.8579  H          1 SUBUNIT      0.1124
47   H         5.4680   68.0217   84.5381  H          1 SUBUNIT      0.1130
48   H         6.0980   65.6648   85.5317  H          1 SUBUNIT      0.0363
49   H         5.4687   66.7403   86.8146  H          1 SUBUNIT      0.0363
50   H         4.4265   64.7546   87.9558  H          1 SUBUNIT      0.0598
51   H         6.1717   64.5106   87.7822  H          1 SUBUNIT      0.0598
52   H         5.0496   63.6897   86.6858  H          1 SUBUNIT      0.0598
53   H         1.0664   71.4407   83.5537  H          1 SUBUNIT      0.0457
54   H         2.3402   72.6935   83.6349  H          1 SUBUNIT      0.0457
55   H        -0.0706   72.5074   81.8558  H          1 SUBUNIT      0.0484
56   H         0.5250   73.8683   82.8516  H          1 SUBUNIT      0.0484
57   H         0.7696   73.4470   80.2293  H          1 SUBUNIT      0.3534
58   H         0.5797   75.6100   81.3954  H          1 SUBUNIT      0.0509
59   H         1.9961   75.6607   80.3341  H          1 SUBUNIT      0.0509
60   H         2.1982   75.3540   82.0662  H          1 SUBUNIT      0.0509
61   H         2.5332   72.6803   79.4489  H          1 SUBUNIT      0.0484
62   H         3.4081   74.0088   80.2664  H          1 SUBUNIT      0.0484
63   H         4.2012   72.6342   81.9680  H          1 SUBUNIT      0.0457
64   H         4.1381   71.4688   80.6129  H          1 SUBUNIT      0.0457
@<TRIPOS>BOND
     1    1    2 1
     2    2    3 1
     3    3    4 1
     4    4    5 2
     5    4   14 1
     6    5    6 1
     7    6    7 1
     8    6    8 1
     9    8    9 1
    10    8   14 2
    11    9   10 2
    12    9   11 1
    13   11   12 1
    14   12   13 2
    15   12   15 1
    16   13   14 1
    17   15   16 2
    18   15   20 1
    19   16   17 1
    20   17   18 2
    21   17   24 1
    22   18   19 1
    23   19   20 2
    24   20   21 1
    25   21   22 1
    26   22   23 1
    27   24   25 2
    28   24   26 2
    29   24   27 1
    30   27   28 1
    31   27   33 1
    32   28   29 1
    33   29   30 1
    34   30   31 1
    35   30   32 1
    36   32   33 1
    37    1   34 1
    38    1   35 1
    39    1   36 1
    40    2   37 1
    41    2   38 1
    42    3   39 1
    43    3   40 1
    44    7   41 1
    45    7   42 1
    46    7   43 1
    47   11   44 1
    48   16   45 1
    49   18   46 1
    50   19   47 1
    51   22   48 1
    52   22   49 1
    53   23   50 1
    54   23   51 1
    55   23   52 1
    56   28   53 1
    57   28   54 1
    58   29   55 1
    59   29   56 1
    60   30   57 1
    61   31   58 1
    62   31   59 1
    63   31   60 1
    64   32   61 1
    65   32   62 1
    66   33   63 1
    67   33   64 1
