@<TRIPOS>MOLECULE
1H00-FAP
 54 56 0 0 0
SMALL
SF_CHARGES


@<TRIPOS>ATOM
1    C         3.7950   28.5970    6.0100  C.2        1 SUBUNIT     -0.0948
2    C         0.3260   33.1000    7.8560  C.2        1 SUBUNIT      0.4667
3    C         1.6140   31.1970    7.6890  C.2        1 SUBUNIT      0.4033
4    C         0.7130   30.5170    8.5790  C.2        1 SUBUNIT     -0.1523
5    C        -0.4010   31.2770    9.0660  C.2        1 SUBUNIT      0.4004
6    C         3.4120   29.2380    7.2190  C.2        1 SUBUNIT      0.1264
7    C         3.6480   28.5750    8.4680  C.2        1 SUBUNIT     -0.0948
8    C         4.2480   27.2990    8.5010  C.2        1 SUBUNIT     -0.1049
9    C         4.6280   26.6560    7.2930  C.2        1 SUBUNIT      0.1649
10   N        -0.5690   32.5630    8.6890  N.2        1 SUBUNIT     -0.5204
11   N         1.3960   32.4840    7.3450  N.2        1 SUBUNIT     -0.5213
12   N        -1.3980   30.7320    9.9800  N.pl3      1 SUBUNIT     -0.5121
13   N         2.7940   30.5570    7.1260  N.pl3      1 SUBUNIT     -0.5122
14   C         4.3990   27.3140    6.0420  C.2        1 SUBUNIT     -0.1049
15   O         5.2070   25.3980    7.4400  O.3        1 SUBUNIT     -0.3809
16   C         4.4640   24.1590    7.6170  C.3        1 SUBUNIT      0.1890
17   C        -1.7340   27.4480   12.7920  C.2        1 SUBUNIT     -0.0936
18   C        -2.8640   27.9370   12.0910  C.2        1 SUBUNIT     -0.1076
19   C        -2.7310   29.0150   11.1770  C.2        1 SUBUNIT      0.1367
20   C        -1.4540   29.6170   10.9470  C.2        1 SUBUNIT      0.0951
21   C        -0.4620   28.0280   12.5840  C.2        1 SUBUNIT     -0.1076
22   C        -0.3090   29.1050   11.6740  C.2        1 SUBUNIT      0.1367
23   F        -3.8490   29.4590   10.5210  F          1 SUBUNIT     -0.1849
24   F         0.9450   29.6210   11.5160  F          1 SUBUNIT     -0.1849
25   C         5.3960   22.9350    7.6620  C.3        1 SUBUNIT      0.2229
26   C         4.7670   21.5370    7.4440  C.3        1 SUBUNIT      0.1602
27   N         5.6170   20.3410    7.7610  N.4        1 SUBUNIT     -0.3169
28   C         6.4420   19.8810    6.6120  C.3        1 SUBUNIT      0.1355
29   C         4.8050   19.2050    8.2910  C.3        1 SUBUNIT      0.1355
30   O         6.2510   22.9720    8.7540  O.3        1 SUBUNIT     -0.5525
31   H         3.6266   29.0859    5.0664  H          1 SUBUNIT      0.1191
32   H         0.1706   34.1254    7.5695  H          1 SUBUNIT      0.0646
33   H         0.8655   29.4911    8.8656  H          1 SUBUNIT      0.1186
34   H         3.3680   29.0480    9.3930  H          1 SUBUNIT      0.1191
35   H         4.4169   26.8140    9.4465  H          1 SUBUNIT      0.1136
36   H        -2.2617   31.2498    9.9359  H          1 SUBUNIT      0.3255
37   H         3.3105   31.1790    6.5239  H          1 SUBUNIT      0.3242
38   H         4.6843   26.8376    5.1204  H          1 SUBUNIT      0.1136
39   H         3.9034   24.2283    8.5551  H          1 SUBUNIT      0.0327
40   H         3.7651   24.0577    6.7802  H          1 SUBUNIT      0.0327
41   H        -1.8433   26.6324   13.4853  H          1 SUBUNIT      0.1098
42   H        -3.8283   27.4879   12.2531  H          1 SUBUNIT      0.1096
43   H         0.3919   27.6500   13.1186  H          1 SUBUNIT      0.1096
44   H         6.0548   23.0653    6.7971  H          1 SUBUNIT      0.0297
45   H         3.8719   21.4689    8.0711  H          1 SUBUNIT      0.0364
46   H         4.4817   21.4567    6.3899  H          1 SUBUNIT      0.0364
47   H         6.2549   20.6494    8.4780  H          1 SUBUNIT      0.3408
48   H         5.8103   19.6000    5.7629  H          1 SUBUNIT      0.0408
49   H         7.0449   19.0090    6.8860  H          1 SUBUNIT      0.0408
50   H         7.1238   20.6699    6.2777  H          1 SUBUNIT      0.0408
51   H         4.2845   19.4904    9.2111  H          1 SUBUNIT      0.0408
52   H         5.4390   18.3413    8.5171  H          1 SUBUNIT      0.0408
53   H         4.0515   18.8878    7.5626  H          1 SUBUNIT      0.0408
54   H         6.9974   22.3926    8.5843  H          1 SUBUNIT      0.3929
@<TRIPOS>BOND
     1    1    6 2
     2    1   14 1
     3    2   10 2
     4    2   11 1
     5    3    4 1
     6    3   11 2
     7    3   13 1
     8    4    5 2
     9    5   10 1
    10    5   12 1
    11    6    7 1
    12    6   13 1
    13    7    8 2
    14    8    9 1
    15    9   14 2
    16    9   15 1
    17   12   20 1
    18   15   16 1
    19   16   25 1
    20   17   18 2
    21   17   21 1
    22   18   19 1
    23   19   20 2
    24   19   23 1
    25   20   22 1
    26   21   22 2
    27   22   24 1
    28   25   26 1
    29   25   30 1
    30   26   27 1
    31   27   28 1
    32   27   29 1
    33    1   31 1
    34    2   32 1
    35    4   33 1
    36    7   34 1
    37    8   35 1
    38   12   36 1
    39   13   37 1
    40   14   38 1
    41   16   39 1
    42   16   40 1
    43   17   41 1
    44   18   42 1
    45   21   43 1
    46   25   44 1
    47   26   45 1
    48   26   46 1
    49   27   47 1
    50   28   48 1
    51   28   49 1
    52   28   50 1
    53   29   51 1
    54   29   52 1
    55   29   53 1
    56   30   54 1
