@<TRIPOS>MOLECULE
ZINC04143471
   50    53     0     0     0
SMALL
USER_CHARGES
2-amino-4-(5-ethyl-2-thienyl)-1-(2-nitrophenyl)-5-oxo-4,6,7,8-tetrahydroquinoline-3-carbonitrile
@<TRIPOS>ATOM
      1 C1          3.1262    2.9792   -6.0200 C.3       1 <0>        -0.1484
      2 C2          2.2806    4.1492   -5.5132 C.3       1 <0>        -0.0384
      3 C3          2.2481    4.1301   -4.0067 C.2       1 <0>        -0.1435
      4 C4          3.0882    4.7283   -3.1271 C.2       1 <0>        -0.1518
      5 C5          2.8627    4.5719   -1.7723 C.2       1 <0>        -0.1456
      6 C6          1.8082    3.8248   -1.3634 C.2       1 <0>        -0.1158
      7 S1          1.0971    3.3080   -2.9173 S.3       1 <0>         0.0119
      8 C7          1.3570    3.5074    0.0390 C.3       1 <0>         0.1470
      9 H1          2.0791    3.9137    0.7472 H         1 <0>         0.1069
     10 C8          1.2867    2.0183    0.2079 C.2       1 <0>        -0.2372
     11 C9          0.0966    1.3644    0.1804 C.2       1 <0>         0.4940
     12 N1         -1.0731    2.0668   -0.0026 N.pl3     1 <0>        -0.4923
     13 C10        -1.1201    3.4150    0.2470 C.2       1 <0>         0.2395
     14 C11         0.0135    4.1472    0.2827 C.2       1 <0>        -0.2501
     15 C12        -0.0233    5.5271    0.5493 C.2       1 <0>         0.4038
     16 O1          1.0144    6.1593    0.5640 O.2       1 <0>        -0.4558
     17 C13        -1.3228    6.2356    0.8172 C.3       1 <0>        -0.1576
     18 C14        -2.3145    5.2423    1.4320 C.3       1 <0>        -0.1110
     19 C15        -2.4667    4.0558    0.4777 C.3       1 <0>        -0.0928
     20 C16        -2.2225    1.3989   -0.4410 C.ar      1 <0>         0.1680
     21 C17        -2.5221    1.3455   -1.7964 C.ar      1 <0>        -0.0970
     22 C18        -3.6565    0.6855   -2.2257 C.ar      1 <0>        -0.0548
     23 C19        -4.4939    0.0779   -1.3078 C.ar      1 <0>        -0.0979
     24 C20        -4.1985    0.1292    0.0420 C.ar      1 <0>        -0.0469
     25 C21        -3.0626    0.7834    0.4775 C.ar      1 <0>        -0.0478
     26 N2         -2.7439    0.8326    1.9222 N.pl3     1 <0>         0.0206
     27 O2         -3.4268    0.2130    2.7179 O.2       1 <0>        -0.1486
     28 O3         -1.7988    1.4928    2.3152 O.3       1 <0>        -0.1347
     29 N3          0.0606   -0.0013    0.3298 N.pl3     1 <0>        -0.8512
     30 C22         2.4946    1.2740    0.4019 C.1       1 <0>         0.2733
     31 N4          3.4528    0.6836    0.5558 N.1       1 <0>        -0.4427
     32 H2          3.1497    2.9931   -7.1097 H         1 <0>         0.0627
     33 H3          4.1413    3.0704   -5.6335 H         1 <0>         0.0586
     34 H4          2.6901    2.0407   -5.6779 H         1 <0>         0.0558
     35 H5          1.2655    4.0581   -5.8997 H         1 <0>         0.0756
     36 H6          2.7167    5.0878   -5.8553 H         1 <0>         0.0849
     37 H7          3.9211    5.3187   -3.4795 H         1 <0>         0.1293
     38 H8          3.5168    5.0382   -1.0504 H         1 <0>         0.1322
     39 H9         -1.1653    6.9921    1.4519 H         1 <0>         0.0908
     40 H10        -1.7259    6.6243   -0.1179 H         1 <0>         0.1015
     41 H11        -1.9356    4.8935    2.3926 H         1 <0>         0.0825
     42 H12        -3.2797    5.7285    1.5736 H         1 <0>         0.0890
     43 H13        -3.1467    3.3241    0.9139 H         1 <0>         0.0752
     44 H14        -2.8698    4.4042   -0.4732 H         1 <0>         0.1013
     45 H15        -1.8688    1.8200   -2.5135 H         1 <0>         0.1585
     46 H16        -3.8898    0.6433   -3.2793 H         1 <0>         0.1567
     47 H17        -5.3804   -0.4380   -1.6461 H         1 <0>         0.1584
     48 H18        -4.8547   -0.3459    0.7562 H         1 <0>         0.1645
     49 H19         0.8847   -0.4974    0.4548 H         1 <0>         0.4234
     50 H20        -0.7889   -0.4691    0.3102 H         1 <0>         0.3956
@<TRIPOS>BOND
     1    1    2 1
     2    1   32 1
     3    1   33 1
     4    1   34 1
     5    2    3 1
     6    2   35 1
     7    2   36 1
     8    3    7 1
     9    3    4 2
    10    4    5 1
    11    4   37 1
    12    5    6 2
    13    5   38 1
    14    6    7 1
    15    6    8 1
    16    8    9 1
    17    8   14 1
    18    8   10 1
    19   10   11 2
    20   10   30 1
    21   11   12 1
    22   11   29 1
    23   12   13 1
    24   12   20 1
    25   13   19 1
    26   13   14 2
    27   14   15 1
    28   15   16 2
    29   15   17 1
    30   17   18 1
    31   17   39 1
    32   17   40 1
    33   18   19 1
    34   18   41 1
    35   18   42 1
    36   19   43 1
    37   19   44 1
    38   20   25 ar
    39   20   21 ar
    40   21   22 ar
    41   21   45 1
    42   22   23 ar
    43   22   46 1
    44   23   24 ar
    45   23   47 1
    46   24   25 ar
    47   24   48 1
    48   25   26 1
    49   26   27 2
    50   26   28 1
    51   29   49 1
    52   29   50 1
    53   30   31 3
@<TRIPOS>MOLECULE
ZINC09367469
   48    51     0     0     0
SMALL
USER_CHARGES
2,3-dimethyl-N-[4-(thiazol-2-ylsulfamoyl)phenyl]-2,3-dihydrobenzofuran-7-carboxamide
@<TRIPOS>ATOM
      1 C1         -0.5373    1.4086    0.1998 C.3       1 <0>        -0.1413
      2 C2         -1.1335    1.7576    1.5649 C.3       1 <0>        -0.0776
      3 H1         -2.1481    1.3696    1.6556 H         1 <0>         0.1012
      4 C3         -0.2538    1.2432    2.6883 C.ar      1 <0>        -0.1798
      5 C4         -0.0766   -0.0143    3.2210 C.ar      1 <0>        -0.0347
      6 C5          0.8038   -0.2107    4.2734 C.ar      1 <0>        -0.1551
      7 C6          1.5075    0.8555    4.7907 C.ar      1 <0>        -0.0517
      8 C7          1.3388    2.1329    4.2561 C.ar      1 <0>        -0.1680
      9 C8          0.4477    2.3330    3.1859 C.ar      1 <0>         0.1802
     10 O1          0.1427    3.4690    2.5061 O.3       1 <0>        -0.2720
     11 C9         -1.1009    3.2851    1.8084 C.3       1 <0>         0.0736
     12 H2         -1.9415    3.5953    2.4291 H         1 <0>         0.0912
     13 C10        -1.0954    4.0458    0.4809 C.3       1 <0>        -0.1517
     14 C11         2.0938    3.2718    4.8115 C.2       1 <0>         0.5611
     15 O2          1.9463    4.3848    4.3445 O.2       1 <0>        -0.4921
     16 N1          2.9472    3.0789    5.8367 N.am      1 <0>        -0.6767
     17 C12         3.7445    4.1343    6.2910 C.ar      1 <0>         0.2151
     18 C13         4.2134    5.0874    5.3961 C.ar      1 <0>        -0.1477
     19 C14         4.9965    6.1311    5.8488 C.ar      1 <0>         0.0281
     20 C15         5.3227    6.2219    7.1895 C.ar      1 <0>        -0.6941
     21 C16         4.8618    5.2716    8.0822 C.ar      1 <0>         0.0025
     22 C17         4.0739    4.2284    7.6370 C.ar      1 <0>        -0.1733
     23 S1          6.3281    7.5509    7.7616 S.o2      1 <0>         2.6888
     24 O3          6.1784    8.6068    6.8226 O.2       1 <0>        -0.9196
     25 O4          6.0388    7.7135    9.1433 O.2       1 <0>        -0.9405
     26 N2          7.9036    7.0503    7.6637 N.pl3     1 <0>        -0.9917
     27 C18         8.4703    6.7830    6.4274 C.2       1 <0>         0.3163
     28 N3          7.9222    6.8615    5.2298 N.2       1 <0>        -0.5438
     29 C19         8.6124    6.5716    4.1427 C.2       1 <0>         0.0648
     30 C20         9.9009    6.1783    4.2815 C.2       1 <0>        -0.2274
     31 S2         10.0815    6.2514    6.0576 S.3       1 <0>         0.0765
     32 H3         -0.4734    0.3253    0.0975 H         1 <0>         0.0626
     33 H4          0.4600    1.8407    0.1176 H         1 <0>         0.0612
     34 H5         -1.1738    1.8110   -0.5883 H         1 <0>         0.0696
     35 H6         -0.6271   -0.8513    2.8176 H         1 <0>         0.1327
     36 H7          0.9385   -1.1989    4.6877 H         1 <0>         0.1381
     37 H8          2.1912    0.7016    5.6125 H         1 <0>         0.1337
     38 H9         -1.9948    3.7986   -0.0832 H         1 <0>         0.0815
     39 H10        -1.0723    5.1178    0.6765 H         1 <0>         0.0705
     40 H11        -0.2152    3.7627   -0.0964 H         1 <0>         0.0725
     41 H12         3.0084    2.2080    6.2595 H         1 <0>         0.4127
     42 H13         3.9625    5.0148    4.3482 H         1 <0>         0.1446
     43 H14         5.3578    6.8750    5.1542 H         1 <0>         0.1541
     44 H15         5.1180    5.3456    9.1288 H         1 <0>         0.1448
     45 H16         3.7139    3.4868    8.3347 H         1 <0>         0.1375
     46 H17         8.4299    6.9441    8.4716 H         1 <0>         0.4427
     47 H18         8.1586    6.6420    3.1652 H         1 <0>         0.1788
     48 H19        10.6206    5.8975    3.5268 H         1 <0>         0.2018
@<TRIPOS>BOND
     1    1    2 1
     2    1   32 1
     3    1   33 1
     4    1   34 1
     5    2    3 1
     6    2   11 1
     7    2    4 1
     8    4    9 ar
     9    4    5 ar
    10    5    6 ar
    11    5   35 1
    12    6    7 ar
    13    6   36 1
    14    7    8 ar
    15    7   37 1
    16    8    9 ar
    17    8   14 1
    18    9   10 1
    19   10   11 1
    20   11   12 1
    21   11   13 1
    22   13   38 1
    23   13   39 1
    24   13   40 1
    25   14   15 2
    26   14   16 am
    27   16   17 1
    28   16   41 1
    29   17   22 ar
    30   17   18 ar
    31   18   19 ar
    32   18   42 1
    33   19   20 ar
    34   19   43 1
    35   20   21 ar
    36   20   23 1
    37   21   22 ar
    38   21   44 1
    39   22   45 1
    40   23   24 2
    41   23   25 2
    42   23   26 1
    43   26   27 1
    44   26   46 1
    45   27   31 1
    46   27   28 2
    47   28   29 1
    48   29   30 2
    49   29   47 1
    50   30   31 1
    51   30   48 1
@<TRIPOS>MOLECULE
ZINC06195036
   50    52     0     0     0
SMALL
USER_CHARGES
ethyl (8S,8aR)-6-amino-5,7,7-tricyano-8-[2-(trifluoromethyl)phenyl]-1,3,8,8a-tetrahydroisoquinoline-2-carboxylate
@<TRIPOS>ATOM
      1 C1          0.9556   -2.1303   -0.2738 C.3       1 <0>        -0.1559
      2 C2          1.1594   -0.6146   -0.2292 C.3       1 <0>         0.0813
      3 O1         -0.1319    0.0456   -0.1596 O.3       1 <0>        -0.3688
      4 C3         -0.1288    1.3912   -0.1136 C.2       1 <0>         0.6557
      5 O2          0.9242    1.9973   -0.1311 O.2       1 <0>        -0.5576
      6 N1         -1.2938    2.0661   -0.0536 N.am      1 <0>        -0.5954
      7 C4         -2.5893    1.3628   -0.0369 C.3       1 <0>         0.1412
      8 C5         -3.3280    1.8213    1.1947 C.2       1 <0>        -0.1554
      9 C6         -3.1016    3.0055    1.7285 C.2       1 <0>        -0.0378
     10 C7         -2.1498    4.0197    1.1682 C.3       1 <0>        -0.0566
     11 H1         -2.7621    4.8228    0.7321 H         1 <0>         0.1051
     12 C8         -1.3264    3.5314    0.0038 C.3       1 <0>         0.1291
     13 C9         -1.2696    4.5362    2.3077 C.3       1 <0>        -0.0359
     14 H2         -0.7342    3.7013    2.7835 H         1 <0>         0.1268
     15 C10        -2.1536    5.2489    3.3318 C.3       1 <0>         0.2131
     16 C11        -3.3229    4.4028    3.7363 C.2       1 <0>         0.2600
     17 C12        -3.7868    3.3623    3.0002 C.2       1 <0>        -0.1474
     18 C13        -4.9253    2.6147    3.4424 C.1       1 <0>         0.2662
     19 N2         -5.8285    2.0216    3.7931 N.1       1 <0>        -0.4261
     20 N3         -3.9563    4.6958    4.9113 N.pl3     1 <0>        -0.8594
     21 C14        -1.3506    5.5609    4.5253 C.1       1 <0>         0.1849
     22 N4         -0.7308    5.8017    5.4464 N.1       1 <0>        -0.3353
     23 C15        -2.6495    6.5054    2.7466 C.1       1 <0>         0.2027
     24 N5         -3.0321    7.4750    2.2950 N.1       1 <0>        -0.3499
     25 C16        -0.2510    5.5027    1.7605 C.ar      1 <0>        -0.0585
     26 C17        -0.6592    6.5702    0.9826 C.ar      1 <0>        -0.1209
     27 C18         0.2749    7.4567    0.4807 C.ar      1 <0>        -0.0778
     28 C19         1.6175    7.2764    0.7573 C.ar      1 <0>        -0.1069
     29 C20         2.0255    6.2094    1.5354 C.ar      1 <0>        -0.0651
     30 C21         1.0906    5.3252    2.0411 C.ar      1 <0>        -0.1584
     31 C22         1.5350    4.1651    2.8942 C.3       1 <0>         0.4990
     32 F1          2.9264    4.1967    3.0363 F         1 <0>        -0.1728
     33 F2          0.9353    4.2567    4.1549 F         1 <0>        -0.1783
     34 F3          1.1557    2.9649    2.2835 F         1 <0>        -0.1569
     35 H3          1.9339   -2.6304   -0.3265 H         1 <0>         0.0831
     36 H4          0.3606   -2.3943   -1.1605 H         1 <0>         0.0673
     37 H5          0.4258   -2.4559    0.6336 H         1 <0>         0.0674
     38 H6          1.7544   -0.3506    0.6575 H         1 <0>         0.0717
     39 H7          1.6892   -0.2890   -1.1365 H         1 <0>         0.0713
     40 H8         -3.1557    1.6161   -0.9452 H         1 <0>         0.0910
     41 H9         -2.4166    0.2770   -0.0034 H         1 <0>         0.1088
     42 H10        -4.0683    1.1460    1.6484 H         1 <0>         0.1278
     43 H11        -0.3022    3.9168    0.1154 H         1 <0>         0.1100
     44 H12        -1.7672    3.9250   -0.9240 H         1 <0>         0.0872
     45 H13        -4.8177    4.0940    5.2367 H         1 <0>         0.4381
     46 H14        -3.6047    5.5334    5.5317 H         1 <0>         0.4273
     47 H15        -1.7080    6.7113    0.7667 H         1 <0>         0.1375
     48 H16        -0.0439    8.2904   -0.1273 H         1 <0>         0.1387
     49 H17         2.3474    7.9690    0.3652 H         1 <0>         0.1405
     50 H18         3.0743    6.0684    1.7513 H         1 <0>         0.1438
@<TRIPOS>BOND
     1    1    2 1
     2    1   35 1
     3    1   36 1
     4    1   37 1
     5    2    3 1
     6    2   38 1
     7    2   39 1
     8    3    4 1
     9    4    5 2
    10    4    6 am
    11    6   12 1
    12    6    7 1
    13    7    8 1
    14    7   40 1
    15    7   41 1
    16    8    9 2
    17    8   42 1
    18    9   17 1
    19    9   10 1
    20   10   11 1
    21   10   12 1
    22   10   13 1
    23   12   43 1
    24   12   44 1
    25   13   14 1
    26   13   15 1
    27   13   25 1
    28   15   16 1
    29   15   21 1
    30   15   23 1
    31   16   17 2
    32   16   20 1
    33   17   18 1
    34   18   19 3
    35   20   45 1
    36   20   46 1
    37   21   22 3
    38   23   24 3
    39   25   30 ar
    40   25   26 ar
    41   26   27 ar
    42   26   47 1
    43   27   28 ar
    44   27   48 1
    45   28   29 ar
    46   28   49 1
    47   29   30 ar
    48   29   50 1
    49   30   31 1
    50   31   32 1
    51   31   33 1
    52   31   34 1
@<TRIPOS>MOLECULE
ZINC12314999
   60    64     0     0     0
SMALL
USER_CHARGES

@<TRIPOS>ATOM
      1 C1         -1.4317    0.6640   -1.4487 C.3       1 <0>        -0.1110
      2 C2         -0.6870   -0.3963   -0.6791 C.ar      1 <0>        -0.1061
      3 C3          0.6659   -0.2293   -0.4104 C.ar      1 <0>        -0.0913
      4 C4          1.3655   -1.1856    0.2906 C.ar      1 <0>        -0.0909
      5 C5          0.7136   -2.3322    0.7363 C.ar      1 <0>         0.1072
      6 C6         -0.6581   -2.4989    0.4630 C.ar      1 <0>        -0.0992
      7 C7         -1.3489   -1.5087   -0.2479 C.ar      1 <0>        -0.0719
      8 C8         -1.0443   -3.7380    1.0290 C.2       1 <0>        -0.1148
      9 C9          0.0528   -4.2851    1.6146 C.2       1 <0>         0.0276
     10 N1          1.1291   -3.4365    1.4419 N.pl3     1 <0>        -0.5647
     11 H1          2.0300   -3.5941    1.7650 H         1 <0>         0.4204
     12 C10         0.0886   -5.5747    2.3204 C.2       1 <0>         0.5902
     13 O1          0.1994   -5.6024    3.5315 O.2       1 <0>        -0.5178
     14 N2         -0.0014   -6.7260    1.6255 N.am      1 <0>        -0.6008
     15 C11        -0.0051   -6.7153    0.1563 C.3       1 <0>         0.1103
     16 C12         1.0923   -7.6585   -0.3465 C.3       1 <0>        -0.1413
     17 C13         0.8918   -9.0437    0.2724 C.3       1 <0>         0.1680
     18 C14         1.0008   -8.9444    1.7957 C.3       1 <0>        -0.1409
     19 C15        -0.0915   -8.0162    2.3227 C.3       1 <0>         0.1145
     20 N3          1.9201   -9.9572   -0.2320 N.pl3     1 <0>        -0.3837
     21 C16         1.7011  -11.0949   -0.9299 C.2       1 <0>         0.3031
     22 C17         2.9140  -11.6463   -1.2078 C.2       1 <0>        -0.2771
     23 C18         3.8967  -10.8164   -0.6611 C.2       1 <0>         0.0610
     24 N4          3.3042   -9.8036   -0.0820 N.2       1 <0>        -0.2847
     25 N5          0.4581  -11.6098   -1.2975 N.am      1 <0>        -0.6480
     26 C19         0.3850  -12.7599   -1.9963 C.2       1 <0>         0.5512
     27 O2          1.4002  -13.3472   -2.3055 O.2       1 <0>        -0.5000
     28 C20        -0.9580  -13.3162   -2.3935 C.3       1 <0>        -0.1975
     29 C21        -1.4130  -14.6125   -1.7200 C.3       1 <0>        -0.1492
     30 C22        -0.9742  -14.6251   -3.1857 C.3       1 <0>        -0.1414
     31 C23        -2.4246   -4.3415    0.9890 C.3       1 <0>        -0.0865
     32 C24         2.8329   -0.9921    0.5742 C.3       1 <0>        -0.1141
     33 H2         -1.8407    1.3975   -0.7539 H         1 <0>         0.0684
     34 H3         -0.7487    1.1590   -2.1391 H         1 <0>         0.0652
     35 H4         -2.2442    0.2025   -2.0098 H         1 <0>         0.0651
     36 H5          1.1738    0.6593   -0.7552 H         1 <0>         0.1273
     37 H6         -2.4017   -1.6276   -0.4574 H         1 <0>         0.1233
     38 H7         -0.9744   -7.0546   -0.2091 H         1 <0>         0.0789
     39 H8          0.1893   -5.7044   -0.2022 H         1 <0>         0.0983
     40 H9          1.0377   -7.7339   -1.4325 H         1 <0>         0.0846
     41 H10         2.0680   -7.2684   -0.0570 H         1 <0>         0.0861
     42 H11        -0.0941   -9.4227    0.0029 H         1 <0>         0.0933
     43 H12         0.8812   -9.9350    2.2344 H         1 <0>         0.0852
     44 H13         1.9774   -8.5422    2.0651 H         1 <0>         0.0870
     45 H14         0.0460   -7.8634    3.3932 H         1 <0>         0.1051
     46 H15        -1.0679   -8.4640    2.1379 H         1 <0>         0.0771
     47 H16         3.0864  -12.5624   -1.7532 H         1 <0>         0.1720
     48 H17         4.9629  -10.9809   -0.7115 H         1 <0>         0.1868
     49 H18        -0.3538  -11.1401   -1.0503 H         1 <0>         0.4098
     50 H19        -1.7225  -12.5759   -2.6290 H         1 <0>         0.1292
     51 H20        -0.7408  -15.0629   -0.9896 H         1 <0>         0.1024
     52 H21        -2.4770  -14.7251   -1.5122 H         1 <0>         0.1095
     53 H22        -1.7497  -14.7460   -3.9421 H         1 <0>         0.1085
     54 H23        -0.0135  -15.0838   -3.4196 H         1 <0>         0.1114
     55 H24        -2.5241   -4.9621    0.0984 H         1 <0>         0.0690
     56 H25        -2.5794   -4.9536    1.8775 H         1 <0>         0.0623
     57 H26        -3.1686   -3.5454    0.9620 H         1 <0>         0.0720
     58 H27         2.9537   -0.4701    1.5234 H         1 <0>         0.0711
     59 H28         3.3236   -1.9638    0.6288 H         1 <0>         0.0574
     60 H29         3.2826   -0.4023   -0.2245 H         1 <0>         0.0729
@<TRIPOS>BOND
     1    1    2 1
     2    1   33 1
     3    1   34 1
     4    1   35 1
     5    2    7 ar
     6    2    3 ar
     7    3    4 ar
     8    3   36 1
     9    4    5 ar
    10    4   32 1
    11    5   10 1
    12    5    6 ar
    13    6    7 ar
    14    6    8 1
    15    7   37 1
    16    8    9 2
    17    8   31 1
    18    9   10 1
    19    9   12 1
    20   10   11 1
    21   12   13 2
    22   12   14 am
    23   14   19 1
    24   14   15 1
    25   15   16 1
    26   15   38 1
    27   15   39 1
    28   16   17 1
    29   16   40 1
    30   16   41 1
    31   17   18 1
    32   17   20 1
    33   17   42 1
    34   18   19 1
    35   18   43 1
    36   18   44 1
    37   19   45 1
    38   19   46 1
    39   20   24 1
    40   20   21 1
    41   21   22 2
    42   21   25 1
    43   22   23 1
    44   22   47 1
    45   23   24 2
    46   23   48 1
    47   25   26 am
    48   25   49 1
    49   26   27 2
    50   26   28 1
    51   28   30 1
    52   28   29 1
    53   28   50 1
    54   29   30 1
    55   29   51 1
    56   29   52 1
    57   30   53 1
    58   30   54 1
    59   31   55 1
    60   31   56 1
    61   31   57 1
    62   32   58 1
    63   32   59 1
    64   32   60 1
@<TRIPOS>MOLECULE
ZINC49008032
   57    60     0     0     0
SMALL
USER_CHARGES

@<TRIPOS>ATOM
      1 C1          0.0251    1.5032    0.0055 C.3       1 <0>        -0.1153
      2 C2          0.0340   -0.0037   -0.0015 C.ar      1 <0>        -0.0910
      3 C3          0.6317   -0.6854   -1.0460 C.ar      1 <0>        -0.1082
      4 C4          0.6415   -2.0662   -1.0554 C.ar      1 <0>        -0.1095
      5 C5          0.0507   -2.7705   -0.0142 C.ar      1 <0>         0.1316
      6 C6         -0.5482   -2.0832    1.0331 C.ar      1 <0>        -0.1039
      7 C7         -0.5504   -0.7019    1.0390 C.ar      1 <0>        -0.1050
      8 C8         -1.1904   -2.8434    2.1648 C.3       1 <0>        -0.1154
      9 N1          0.0586   -4.1697   -0.0209 N.am      1 <0>        -0.6649
     10 C9         -0.0404   -4.8386   -1.1868 C.2       1 <0>         0.4990
     11 O1         -0.0541   -4.2300   -2.2358 O.2       1 <0>        -0.5001
     12 C10        -0.1340   -6.3427   -1.1871 C.3       1 <0>         0.0746
     13 N2         -0.2319   -6.8256   -2.5667 N.am      1 <0>        -0.4972
     14 C11        -1.4626   -6.9770   -3.1688 C.ar      1 <0>         0.1849
     15 C12        -2.6273   -6.6706   -2.4670 C.ar      1 <0>        -0.1657
     16 C13        -3.8466   -6.8185   -3.0589 C.ar      1 <0>        -0.0265
     17 C14        -3.9457   -7.2804   -4.3790 C.ar      1 <0>        -0.1641
     18 C15        -2.7987   -7.5924   -5.0978 C.ar      1 <0>         0.0358
     19 C16        -1.5427   -7.4419   -4.4963 C.ar      1 <0>         0.0168
     20 N3         -0.4249   -7.7410   -5.1870 N.2       1 <0>        -0.3933
     21 C17         0.7527   -7.6092   -4.6478 C.2       1 <0>         0.1041
     22 C18         0.8826   -7.1237   -3.2690 C.2       1 <0>         0.4965
     23 O2          1.9824   -6.9946   -2.7627 O.2       1 <0>        -0.5015
     24 C19        -5.2736   -7.4362   -5.0070 C.2       1 <0>         0.5640
     25 O3         -5.3615   -7.8365   -6.1516 O.2       1 <0>        -0.5288
     26 N4         -6.3877   -7.1344   -4.3112 N.am      1 <0>        -0.7209
     27 C20        -7.7047   -7.2889   -4.9341 C.3       1 <0>         0.1396
     28 C21        -8.0877   -5.9982   -5.6872 C.3       1 <0>        -0.1361
     29 C22        -9.6121   -5.8587   -5.4510 C.3       1 <0>        -0.1254
     30 C23        -9.7756   -6.3323   -3.9853 C.3       1 <0>        -0.1251
     31 C24        -8.7778   -7.5013   -3.8520 C.3       1 <0>        -0.1318
     32 H1          0.9181    1.8695    0.5119 H         1 <0>         0.0715
     33 H2          0.0124    1.8713   -1.0204 H         1 <0>         0.0671
     34 H3         -0.8618    1.8589    0.5300 H         1 <0>         0.0667
     35 H4          1.0909   -0.1372   -1.8553 H         1 <0>         0.1257
     36 H5          1.1078   -2.5980   -1.8716 H         1 <0>         0.1377
     37 H6         -1.0125   -0.1666    1.8554 H         1 <0>         0.1269
     38 H7         -0.4523   -3.0237    2.9464 H         1 <0>         0.0729
     39 H8         -2.0158   -2.2596    2.5723 H         1 <0>         0.0729
     40 H9         -1.5676   -3.7965    1.7943 H         1 <0>         0.0623
     41 H10         0.1353   -4.6583    0.8135 H         1 <0>         0.4124
     42 H11         0.7558   -6.7622   -0.7176 H         1 <0>         0.1374
     43 H12        -1.0186   -6.6518   -0.6303 H         1 <0>         0.1291
     44 H13        -2.5636   -6.3146   -1.4493 H         1 <0>         0.1381
     45 H14        -4.7430   -6.5783   -2.5065 H         1 <0>         0.1383
     46 H15        -2.8749   -7.9489   -6.1144 H         1 <0>         0.1605
     47 H16         1.6366   -7.8542   -5.2180 H         1 <0>         0.2022
     48 H17        -6.3175   -6.8149   -3.3980 H         1 <0>         0.3981
     49 H18        -7.6953   -8.1345   -5.6217 H         1 <0>         0.0951
     50 H19        -7.5572   -5.1418   -5.2709 H         1 <0>         0.0703
     51 H20        -7.8743   -6.0998   -6.7513 H         1 <0>         0.0728
     52 H21        -9.9263   -4.8206   -5.5588 H         1 <0>         0.0699
     53 H22       -10.1689   -6.5045   -6.1300 H         1 <0>         0.0707
     54 H23        -9.5177   -5.5299   -3.2941 H         1 <0>         0.0670
     55 H24       -10.7939   -6.6778   -3.8074 H         1 <0>         0.0697
     56 H25        -9.2899   -8.4497   -4.0150 H         1 <0>         0.0771
     57 H26        -8.3188   -7.4895   -2.8634 H         1 <0>         0.0706
@<TRIPOS>BOND
     1    1    2 1
     2    1   32 1
     3    1   33 1
     4    1   34 1
     5    2    7 ar
     6    2    3 ar
     7    3    4 ar
     8    3   35 1
     9    4    5 ar
    10    4   36 1
    11    5    6 ar
    12    5    9 1
    13    6    7 ar
    14    6    8 1
    15    7   37 1
    16    8   38 1
    17    8   39 1
    18    8   40 1
    19    9   10 am
    20    9   41 1
    21   10   11 2
    22   10   12 1
    23   12   13 1
    24   12   42 1
    25   12   43 1
    26   13   22 am
    27   13   14 1
    28   14   19 ar
    29   14   15 ar
    30   15   16 ar
    31   15   44 1
    32   16   17 ar
    33   16   45 1
    34   17   18 ar
    35   17   24 1
    36   18   19 ar
    37   18   46 1
    38   19   20 1
    39   20   21 2
    40   21   22 1
    41   21   47 1
    42   22   23 2
    43   24   25 2
    44   24   26 am
    45   26   27 1
    46   26   48 1
    47   27   31 1
    48   27   28 1
    49   27   49 1
    50   28   29 1
    51   28   50 1
    52   28   51 1
    53   29   30 1
    54   29   52 1
    55   29   53 1
    56   30   31 1
    57   30   54 1
    58   30   55 1
    59   31   56 1
    60   31   57 1
@<TRIPOS>MOLECULE
ZINC64930607
   53    56     0     0     0
SMALL
USER_CHARGES

@<TRIPOS>ATOM
      1 C1         -0.0989    1.2792   -2.0568 C.3       1 <0>        -0.1152
      2 C2         -0.0677   -0.2110   -1.8341 C.ar      1 <0>        -0.0953
      3 C3         -0.7756   -1.0493   -2.6758 C.ar      1 <0>        -0.1009
      4 C4         -0.7487   -2.4154   -2.4748 C.ar      1 <0>        -0.1332
      5 C5         -0.0096   -2.9470   -1.4258 C.ar      1 <0>         0.1345
      6 C6          0.7004   -2.1022   -0.5823 C.ar      1 <0>        -0.1141
      7 C7          0.6735   -0.7374   -0.7921 C.ar      1 <0>        -0.1003
      8 N1          0.0194   -4.3296   -1.2192 N.am      1 <0>        -0.6461
      9 C8          0.1086   -4.8222    0.0321 C.2       1 <0>         0.6204
     10 O1          0.0727   -4.0689    0.9862 O.2       1 <0>        -0.4957
     11 C9          0.2496   -6.2728    0.2441 C.2       1 <0>        -0.0565
     12 N2          0.3156   -7.2623   -0.6424 N.2       1 <0>        -0.2071
     13 N3          0.4384   -8.4476   -0.2219 N.2       1 <0>        -0.2825
     14 C10         0.5027   -8.7300    1.0641 C.2       1 <0>         0.0018
     15 S1          0.3884   -7.2012    1.7651 S.3       1 <0>         0.2367
     16 C11         0.6475  -10.0721    1.7342 C.3       1 <0>         0.2504
     17 H1          0.9440   -9.9368    2.7743 H         1 <0>         0.1115
     18 C12        -0.6892  -10.8402    1.6650 C.3       1 <0>        -0.1225
     19 C13        -0.2370  -12.3025    1.4110 C.3       1 <0>        -0.1265
     20 C14         0.9989  -12.0922    0.5011 C.3       1 <0>         0.0940
     21 N4          1.6545  -10.8775    1.0279 N.am      1 <0>        -0.6199
     22 C15         2.9562  -10.5585    0.8849 C.2       1 <0>         0.7274
     23 O2          3.3851   -9.5260    1.3627 O.2       1 <0>        -0.5643
     24 N5          3.7823  -11.3841    0.2123 N.am      1 <0>        -0.6797
     25 C16         5.1535  -11.1099    0.1580 C.ar      1 <0>         0.1663
     26 C17         5.8824  -11.4287   -0.9805 C.ar      1 <0>        -0.1525
     27 C18         7.2353  -11.1565   -1.0311 C.ar      1 <0>        -0.0949
     28 C19         7.8646  -10.5674    0.0504 C.ar      1 <0>        -0.1368
     29 C20         7.1419  -10.2492    1.1853 C.ar      1 <0>        -0.0663
     30 C21         5.7871  -10.5134    1.2399 C.ar      1 <0>        -0.1207
     31 C22         7.8318   -9.6084    2.3619 C.3       1 <0>        -0.1149
     32 H2          0.7104    1.5631   -2.7295 H         1 <0>         0.0714
     33 H3         -1.0546    1.5605   -2.4991 H         1 <0>         0.0671
     34 H4          0.0248    1.7918   -1.1028 H         1 <0>         0.0673
     35 H5         -1.3504   -0.6352   -3.4910 H         1 <0>         0.1288
     36 H6         -1.3021   -3.0695   -3.1322 H         1 <0>         0.1286
     37 H7          1.2758   -2.5124    0.2344 H         1 <0>         0.1352
     38 H8          1.2285   -0.0802   -0.1390 H         1 <0>         0.1281
     39 H9         -0.0246   -4.9342   -1.9765 H         1 <0>         0.4217
     40 H10        -1.2284  -10.7617    2.6090 H         1 <0>         0.1000
     41 H11        -1.3006  -10.4766    0.8391 H         1 <0>         0.0890
     42 H12         0.0432  -12.7923    2.3435 H         1 <0>         0.0856
     43 H13        -1.0123  -12.8668    0.8927 H         1 <0>         0.0961
     44 H14         1.6723  -12.9464    0.5725 H         1 <0>         0.0817
     45 H15         0.6876  -11.9389   -0.5322 H         1 <0>         0.0793
     46 H16         3.4264  -12.1682   -0.2342 H         1 <0>         0.4076
     47 H17         5.3917  -11.8894   -1.8251 H         1 <0>         0.1241
     48 H18         7.8026  -11.4042   -1.9161 H         1 <0>         0.1272
     49 H19         8.9228  -10.3558    0.0085 H         1 <0>         0.1235
     50 H20         5.2223  -10.2605    2.1250 H         1 <0>         0.1340
     51 H21         7.7972   -8.5240    2.2569 H         1 <0>         0.0722
     52 H22         7.3268   -9.9006    3.2826 H         1 <0>         0.0664
     53 H23         8.8705   -9.9370    2.3972 H         1 <0>         0.0681
@<TRIPOS>BOND
     1    1    2 1
     2    1   32 1
     3    1   33 1
     4    1   34 1
     5    2    7 ar
     6    2    3 ar
     7    3    4 ar
     8    3   35 1
     9    4    5 ar
    10    4   36 1
    11    5    6 ar
    12    5    8 1
    13    6    7 ar
    14    6   37 1
    15    7   38 1
    16    8    9 am
    17    8   39 1
    18    9   10 2
    19    9   11 1
    20   11   15 1
    21   11   12 2
    22   12   13 1
    23   13   14 2
    24   14   15 1
    25   14   16 1
    26   16   17 1
    27   16   21 1
    28   16   18 1
    29   18   19 1
    30   18   40 1
    31   18   41 1
    32   19   20 1
    33   19   42 1
    34   19   43 1
    35   20   21 1
    36   20   44 1
    37   20   45 1
    38   21   22 am
    39   22   23 2
    40   22   24 am
    41   24   25 1
    42   24   46 1
    43   25   30 ar
    44   25   26 ar
    45   26   27 ar
    46   26   47 1
    47   27   28 ar
    48   27   48 1
    49   28   29 ar
    50   28   49 1
    51   29   30 ar
    52   29   31 1
    53   30   50 1
    54   31   51 1
    55   31   52 1
    56   31   53 1
@<TRIPOS>MOLECULE
ZINC09789065
   54    58     0     0     0
SMALL
USER_CHARGES
2-(4-benzofuran-2-yl-4-methyl-2,5-dioxo-imidazolidin-1-yl)-N-[phenyl-(2-thienyl)methyl]-acetamide
@<TRIPOS>ATOM
      1 C1         -2.0013    4.6706    6.7271 C.3       1 <0>        -0.1461
      2 C2         -2.9024    3.4548    6.5018 C.3       1 <0>         0.2085
      3 C3         -3.4378    3.4432    5.0837 C.2       1 <0>         0.5398
      4 O1         -4.1379    4.2821    4.5584 O.2       1 <0>        -0.4374
      5 N1         -2.9729    2.3068    4.5280 N.am      1 <0>        -0.5608
      6 C4         -2.2302    1.6037    5.3905 C.2       1 <0>         0.7143
      7 O2         -1.7061    0.5408    5.1207 O.2       1 <0>        -0.5249
      8 N2         -2.1252    2.2064    6.5886 N.am      1 <0>        -0.7089
      9 C5         -3.2517    1.8899    3.1515 C.3       1 <0>         0.0995
     10 C6         -2.1882    2.4382    2.2354 C.2       1 <0>         0.5082
     11 O3         -1.2862    3.1111    2.6877 O.2       1 <0>        -0.5155
     12 N3         -2.2394    2.1810    0.9134 N.am      1 <0>        -0.7203
     13 C7         -1.2055    2.7140    0.0228 C.3       1 <0>         0.2795
     14 H1         -0.8911    3.6955    0.3777 H         1 <0>         0.1179
     15 C8         -1.7601    2.8384   -1.3729 C.ar      1 <0>        -0.0952
     16 C9         -2.5816    1.8495   -1.8809 C.ar      1 <0>        -0.1079
     17 C10        -3.0946    1.9661   -3.1592 C.ar      1 <0>        -0.1136
     18 C11        -2.7773    3.0664   -3.9335 C.ar      1 <0>        -0.1120
     19 C12        -1.9512    4.0526   -3.4276 C.ar      1 <0>        -0.1143
     20 C13        -1.4428    3.9387   -2.1472 C.ar      1 <0>        -0.0991
     21 C14        -0.0221    1.7810    0.0118 C.2       1 <0>        -0.1542
     22 C15         1.3000    2.0794    0.0008 C.2       1 <0>        -0.1404
     23 C16         2.2199    1.0478   -0.0135 C.2       1 <0>        -0.1559
     24 C17         1.7727   -0.2318   -0.0161 C.2       1 <0>        -0.1709
     25 S1          0.0021   -0.0041    0.0020 S.3       1 <0>         0.0472
     26 C18        -4.0348    3.4445    7.4961 C.2       1 <0>         0.0167
     27 C19        -3.9786    2.8955    8.7171 C.2       1 <0>        -0.1663
     28 C20        -5.2938    3.1217    9.3284 C.ar      1 <0>        -0.1347
     29 C21        -5.8639    2.8039   10.5602 C.ar      1 <0>        -0.0660
     30 C22        -7.1563    3.1653   10.8224 C.ar      1 <0>        -0.1342
     31 C23        -7.9023    3.8455    9.8707 C.ar      1 <0>        -0.0862
     32 C24        -7.3555    4.1683    8.6471 C.ar      1 <0>        -0.1065
     33 C25        -6.0440    3.8103    8.3605 C.ar      1 <0>         0.0609
     34 O4         -5.2499    3.9798    7.2844 O.3       1 <0>        -0.1766
     35 H2         -2.5764    5.5831    6.5702 H         1 <0>         0.0911
     36 H3         -1.6172    4.6540    7.7470 H         1 <0>         0.0883
     37 H4         -1.1685    4.6407    6.0246 H         1 <0>         0.0866
     38 H5         -1.6364    1.8805    7.3605 H         1 <0>         0.4446
     39 H6         -4.2261    2.2716    2.8465 H         1 <0>         0.1307
     40 H7         -3.2540    0.8014    3.0950 H         1 <0>         0.1334
     41 H8         -2.9608    1.6428    0.5516 H         1 <0>         0.4050
     42 H9         -2.8259    0.9877   -1.2775 H         1 <0>         0.1200
     43 H10        -3.7403    1.1958   -3.5544 H         1 <0>         0.1266
     44 H11        -3.1751    3.1558   -4.9336 H         1 <0>         0.1253
     45 H12        -1.7033    4.9122   -4.0326 H         1 <0>         0.1269
     46 H13        -0.7974    4.7092   -1.7519 H         1 <0>         0.1259
     47 H14         1.6298    3.1078    0.0028 H         1 <0>         0.1324
     48 H15         3.2792    1.2581   -0.0229 H         1 <0>         0.1347
     49 H16         2.3402   -1.1506   -0.0268 H         1 <0>         0.1860
     50 H17        -3.1345    2.3903    9.1628 H         1 <0>         0.1616
     51 H18        -5.2873    2.2742   11.3042 H         1 <0>         0.1301
     52 H19        -7.5991    2.9201   11.7764 H         1 <0>         0.1325
     53 H20        -8.9219    4.1254   10.0909 H         1 <0>         0.1384
     54 H21        -7.9448    4.6982    7.9135 H         1 <0>         0.1353
@<TRIPOS>BOND
     1    1    2 1
     2    1   35 1
     3    1   36 1
     4    1   37 1
     5    2    8 1
     6    2    3 1
     7    2   26 1
     8    3    4 2
     9    3    5 am
    10    5    6 am
    11    5    9 1
    12    6    7 2
    13    6    8 am
    14    8   38 1
    15    9   10 1
    16    9   39 1
    17    9   40 1
    18   10   11 2
    19   10   12 am
    20   12   13 1
    21   12   41 1
    22   13   14 1
    23   13   15 1
    24   13   21 1
    25   15   20 ar
    26   15   16 ar
    27   16   17 ar
    28   16   42 1
    29   17   18 ar
    30   17   43 1
    31   18   19 ar
    32   18   44 1
    33   19   20 ar
    34   19   45 1
    35   20   46 1
    36   21   25 1
    37   21   22 2
    38   22   23 1
    39   22   47 1
    40   23   24 2
    41   23   48 1
    42   24   25 1
    43   24   49 1
    44   26   34 1
    45   26   27 2
    46   27   28 1
    47   27   50 1
    48   28   33 ar
    49   28   29 ar
    50   29   30 ar
    51   29   51 1
    52   30   31 ar
    53   30   52 1
    54   31   32 ar
    55   31   53 1
    56   32   33 ar
    57   32   54 1
    58   33   34 1
@<TRIPOS>MOLECULE
ZINC14484610
   56    59     0     0     0
SMALL
USER_CHARGES
N-[(1S)-1-(1,3-benzodioxol-5-yl)ethyl]-4-[(3,4-dimethylphenyl)sulfonylamino]benzamide
@<TRIPOS>ATOM
      1 C1          2.3949   -1.0842   -6.6213 C.3       1 <0>        -0.1300
      2 C2          2.9896   -0.8726   -5.2528 C.ar      1 <0>        -0.0248
      3 C3          3.5677   -1.9324   -4.5790 C.ar      1 <0>        -0.1372
      4 C4          4.1174   -1.7374   -3.3259 C.ar      1 <0>        -0.0195
      5 C5          4.0802   -0.4846   -2.7421 C.ar      1 <0>        -0.6791
      6 C6          3.5028    0.5749   -3.4160 C.ar      1 <0>        -0.0122
      7 C7          2.9576    0.3810   -4.6716 C.ar      1 <0>        -0.1059
      8 C8          2.3279    1.5363   -5.4064 C.3       1 <0>        -0.1207
      9 S1          4.7755   -0.2373   -1.1421 S.o2      1 <0>         2.6895
     10 O1          4.9931    1.1603   -1.0054 O.2       1 <0>        -0.9460
     11 O2          5.8220   -1.1884   -1.0026 O.2       1 <0>        -0.9464
     12 N1          3.6139   -0.6460   -0.0350 N.pl3     1 <0>        -1.0564
     13 C9          2.4129    0.0537    0.0031 C.ar      1 <0>         0.1727
     14 C10         1.2078   -0.6387    0.0836 C.ar      1 <0>        -0.1360
     15 C11         0.0176    0.0510    0.1219 C.ar      1 <0>        -0.0376
     16 C12         0.0194    1.4483    0.0795 C.ar      1 <0>        -0.1458
     17 C13         1.2312    2.1406   -0.0018 C.ar      1 <0>        -0.0614
     18 C14         2.4180    1.4452   -0.0397 C.ar      1 <0>        -0.1611
     19 C15        -1.2550    2.1905    0.1142 C.2       1 <0>         0.5639
     20 O3         -2.3085    1.5869    0.1799 O.2       1 <0>        -0.5314
     21 N2         -1.2516    3.5376    0.0733 N.am      1 <0>        -0.7225
     22 C16        -2.5172    4.2747    0.1078 C.3       1 <0>         0.1895
     23 H1         -3.2799    3.7126   -0.4312 H         1 <0>         0.1025
     24 C17        -2.9564    4.4662    1.5609 C.3       1 <0>        -0.1603
     25 C18        -2.3322    5.6214   -0.5427 C.ar      1 <0>        -0.0840
     26 C19        -1.1720    6.3403   -0.3223 C.ar      1 <0>        -0.1051
     27 C20        -0.9977    7.5763   -0.9163 C.ar      1 <0>        -0.0937
     28 C21        -1.9865    8.0978   -1.7348 C.ar      1 <0>         0.0344
     29 C22        -3.1550    7.3734   -1.9571 C.ar      1 <0>         0.0381
     30 C23        -3.3204    6.1328   -1.3629 C.ar      1 <0>        -0.0873
     31 O4         -3.9627    8.0931   -2.7896 O.3       1 <0>        -0.3070
     32 C24        -3.1066    9.0771   -3.3998 C.3       1 <0>         0.2128
     33 O5         -2.0620    9.2712   -2.4281 O.3       1 <0>        -0.3074
     34 H2          3.1588   -0.9133   -7.3798 H         1 <0>         0.0814
     35 H3          2.0245   -2.1061   -6.7024 H         1 <0>         0.0735
     36 H4          1.5713   -0.3862   -6.7714 H         1 <0>         0.0779
     37 H5          3.5931   -2.9119   -5.0332 H         1 <0>         0.1346
     38 H6          4.5726   -2.5644   -2.8012 H         1 <0>         0.1392
     39 H7          3.4777    1.5545   -2.9619 H         1 <0>         0.1411
     40 H8          3.0835    2.0370   -6.0118 H         1 <0>         0.0757
     41 H9          1.5319    1.1656   -6.0522 H         1 <0>         0.0745
     42 H10         1.9130    2.2418   -4.6866 H         1 <0>         0.0705
     43 H11         3.7712   -1.3736    0.5870 H         1 <0>         0.4307
     44 H12         1.2070   -1.7182    0.1163 H         1 <0>         0.1378
     45 H13        -0.9169   -0.4867    0.1850 H         1 <0>         0.1433
     46 H14         1.2358    3.2201   -0.0351 H         1 <0>         0.1329
     47 H15         3.3545    1.9795   -0.1025 H         1 <0>         0.1634
     48 H16        -0.4112    4.0192    0.0209 H         1 <0>         0.3999
     49 H17        -2.1938    5.0283    2.0999 H         1 <0>         0.0619
     50 H18        -3.8981    5.0146    1.5865 H         1 <0>         0.0711
     51 H19        -3.0903    3.4921    2.0313 H         1 <0>         0.0690
     52 H20        -0.4003    5.9355    0.3157 H         1 <0>         0.1366
     53 H21        -0.0905    8.1358   -0.7421 H         1 <0>         0.1397
     54 H22        -4.2236    5.5670   -1.5371 H         1 <0>         0.1395
     55 H23        -2.6942    8.6987   -4.3351 H         1 <0>         0.0867
     56 H24        -3.6507   10.0065   -3.5681 H         1 <0>         0.1343
@<TRIPOS>BOND
     1    1    2 1
     2    1   34 1
     3    1   35 1
     4    1   36 1
     5    2    7 ar
     6    2    3 ar
     7    3    4 ar
     8    3   37 1
     9    4    5 ar
    10    4   38 1
    11    5    6 ar
    12    5    9 1
    13    6    7 ar
    14    6   39 1
    15    7    8 1
    16    8   40 1
    17    8   41 1
    18    8   42 1
    19    9   10 2
    20    9   11 2
    21    9   12 1
    22   12   13 1
    23   12   43 1
    24   13   18 ar
    25   13   14 ar
    26   14   15 ar
    27   14   44 1
    28   15   16 ar
    29   15   45 1
    30   16   17 ar
    31   16   19 1
    32   17   18 ar
    33   17   46 1
    34   18   47 1
    35   19   20 2
    36   19   21 am
    37   21   22 1
    38   21   48 1
    39   22   23 1
    40   22   24 1
    41   22   25 1
    42   24   49 1
    43   24   50 1
    44   24   51 1
    45   25   30 ar
    46   25   26 ar
    47   26   27 ar
    48   26   52 1
    49   27   28 ar
    50   27   53 1
    51   28   33 1
    52   28   29 ar
    53   29   30 ar
    54   29   31 1
    55   30   54 1
    56   31   32 1
    57   32   33 1
    58   32   55 1
    59   32   56 1
@<TRIPOS>MOLECULE
ZINC22506148
   57    60     0     0     0
SMALL
USER_CHARGES
3-benzhydryl-1-[5-(1,1-dioxo-1,2-thiazolidin-2-yl)-2-methoxy-phenyl]urea
@<TRIPOS>ATOM
      1 C1          2.0335    0.1029   -1.7853 C.3       1 <0>         0.0248
      2 O1          2.1819    1.3930   -1.1889 O.3       1 <0>        -0.3182
      3 C2          1.0851    1.9230   -0.5822 C.ar      1 <0>         0.0744
      4 C3         -0.1056    1.2155   -0.5628 C.ar      1 <0>        -0.1479
      5 C4         -1.2221    1.7547    0.0480 C.ar      1 <0>        -0.1489
      6 C5         -1.1505    3.0027    0.6531 C.ar      1 <0>         0.1992
      7 C6          0.0404    3.7152    0.6361 C.ar      1 <0>        -0.1218
      8 C7          1.1595    3.1771    0.0189 C.ar      1 <0>         0.1787
      9 N1          2.3637    3.8939    0.0004 N.am      1 <0>        -0.6884
     10 C8          2.3463    5.2382   -0.0944 C.2       1 <0>         0.7120
     11 O2          1.2869    5.8349   -0.0821 O.2       1 <0>        -0.5745
     12 N2          3.5031    5.9212   -0.2029 N.am      1 <0>        -0.7452
     13 C9          3.4842    7.3824   -0.3059 C.3       1 <0>         0.2518
     14 C10         4.7946    7.9379    0.1895 C.ar      1 <0>        -0.0852
     15 C11         5.9783    7.2924   -0.1152 C.ar      1 <0>        -0.1111
     16 C12         7.1807    7.8047    0.3352 C.ar      1 <0>        -0.1145
     17 C13         7.1984    8.9569    1.0988 C.ar      1 <0>        -0.1167
     18 C14         6.0142    9.5992    1.4083 C.ar      1 <0>        -0.1139
     19 C15         4.8123    9.0899    0.9535 C.ar      1 <0>        -0.1044
     20 C16         3.2811    7.7820   -1.7447 C.ar      1 <0>        -0.0894
     21 C17         3.9233    7.0868   -2.7523 C.ar      1 <0>        -0.1000
     22 C18         3.7332    7.4503   -4.0724 C.ar      1 <0>        -0.1214
     23 C19         2.9088    8.5152   -4.3843 C.ar      1 <0>        -0.1181
     24 C20         2.2711    9.2139   -3.3763 C.ar      1 <0>        -0.1185
     25 C21         2.4571    8.8471   -2.0565 C.ar      1 <0>        -0.1012
     26 N3         -2.2809    3.5444    1.2750 N.pl3     1 <0>        -0.9263
     27 C22        -2.3054    4.5404    2.3614 C.3       1 <0>         0.0593
     28 C23        -3.5863    5.3970    2.2866 C.3       1 <0>        -0.1367
     29 C24        -4.7402    4.3746    2.0584 C.3       1 <0>        -0.5950
     30 S1         -3.8848    3.1883    0.9425 S.o2      1 <0>         2.5643
     31 O3         -4.0791    3.5478   -0.4184 O.2       1 <0>        -0.9414
     32 O4         -4.0767    1.8520    1.3861 O.2       1 <0>        -0.9457
     33 H1          2.9884   -0.2044   -2.2367 H         1 <0>         0.1016
     34 H2          1.2571    0.1458   -2.5633 H         1 <0>         0.0568
     35 H3          1.7408   -0.6257   -1.0149 H         1 <0>         0.0571
     36 H4         -0.1628    0.2432   -1.0294 H         1 <0>         0.1397
     37 H5         -2.1504    1.2029    0.0582 H         1 <0>         0.1298
     38 H6          0.0954    4.6877    1.1026 H         1 <0>         0.1539
     39 H7          3.3230    3.3593    0.0633 H         1 <0>         0.4332
     40 H8          4.4615    5.3814   -0.2141 H         1 <0>         0.4145
     41 H9          2.6548    7.7551    0.3130 H         1 <0>         0.1049
     42 H10         5.9641    6.3900   -0.7084 H         1 <0>         0.1196
     43 H11         8.1059    7.3026    0.0936 H         1 <0>         0.1244
     44 H12         8.1375    9.3550    1.4538 H         1 <0>         0.1235
     45 H13         6.0280   10.4992    2.0052 H         1 <0>         0.1251
     46 H14         3.8870    9.5917    1.1954 H         1 <0>         0.1243
     47 H15         4.5706    6.2574   -2.5084 H         1 <0>         0.1155
     48 H16         4.2318    6.9046   -4.8599 H         1 <0>         0.1206
     49 H17         2.7632    8.8015   -5.4154 H         1 <0>         0.1211
     50 H18         1.6273   10.0461   -3.6199 H         1 <0>         0.1226
     51 H19         1.9588    9.3930   -1.2690 H         1 <0>         0.1210
     52 H20        -2.2789    4.0244    3.3325 H         1 <0>         0.0881
     53 H21        -1.4302    5.2009    2.2731 H         1 <0>         0.1047
     54 H22        -3.7133    5.9498    3.2291 H         1 <0>         0.1185
     55 H23        -3.5030    6.1091    1.4523 H         1 <0>         0.0995
     56 H24        -5.0450    3.9442    3.0237 H         1 <0>         0.1496
     57 H25        -5.5981    4.8866    1.5980 H         1 <0>         0.1506
@<TRIPOS>BOND
     1    1    2 1
     2    1   33 1
     3    1   34 1
     4    1   35 1
     5    2    3 1
     6    3    8 ar
     7    3    4 ar
     8    4    5 ar
     9    4   36 1
    10    5    6 ar
    11    5   37 1
    12    6    7 ar
    13    6   26 1
    14    7    8 ar
    15    7   38 1
    16    8    9 1
    17    9   10 am
    18    9   39 1
    19   10   11 2
    20   10   12 am
    21   12   13 1
    22   12   40 1
    23   13   14 1
    24   13   20 1
    25   13   41 1
    26   14   19 ar
    27   14   15 ar
    28   15   16 ar
    29   15   42 1
    30   16   17 ar
    31   16   43 1
    32   17   18 ar
    33   17   44 1
    34   18   19 ar
    35   18   45 1
    36   19   46 1
    37   20   25 ar
    38   20   21 ar
    39   21   22 ar
    40   21   47 1
    41   22   23 ar
    42   22   48 1
    43   23   24 ar
    44   23   49 1
    45   24   25 ar
    46   24   50 1
    47   25   51 1
    48   26   30 1
    49   26   27 1
    50   27   28 1
    51   27   52 1
    52   27   53 1
    53   28   29 1
    54   28   54 1
    55   28   55 1
    56   29   30 1
    57   29   56 1
    58   29   57 1
    59   30   31 2
    60   30   32 2
@<TRIPOS>MOLECULE
ZINC40812419
   52    56     0     0     0
SMALL
USER_CHARGES

@<TRIPOS>ATOM
      1 C1         -0.0184    1.5028    0.0103 C.3       1 <0>        -0.1050
      2 C2          0.0021   -0.0041    0.0020 C.2       1 <0>        -0.0130
      3 C3          0.0084   -0.8383   -1.1224 C.2       1 <0>        -0.1552
      4 C4          0.0263   -2.1376   -0.6724 C.2       1 <0>         0.0736
      5 O1          0.0341   -2.1119    0.6582 O.3       1 <0>        -0.1469
      6 C5          0.0241   -0.8306    1.0911 C.2       1 <0>        -0.1079
      7 C6          0.0324   -0.4001    2.4931 C.2       1 <0>         0.6071
      8 O2          0.0193    0.7858    2.7655 O.2       1 <0>        -0.4385
      9 N1          0.0547   -1.3179    3.4798 N.am      1 <0>        -0.6121
     10 C7          0.0625   -0.9117    4.8027 C.2       1 <0>         0.3729
     11 N2          0.0452    0.3074    5.2898 N.2       1 <0>        -0.5047
     12 C8          0.0553    0.5589    6.6168 C.ar      1 <0>         0.1014
     13 C9          0.0396    1.8144    7.2676 C.ar      1 <0>        -0.0638
     14 C10         0.0538    1.8940    8.6355 C.ar      1 <0>        -0.1058
     15 C11         0.0838    0.7554    9.4279 C.ar      1 <0>        -0.0998
     16 C12         0.0999   -0.4889    8.8250 C.ar      1 <0>        -0.0623
     17 C13         0.0859   -0.5785    7.4555 C.ar      1 <0>        -0.1483
     18 S1          0.0908   -1.9131    6.2827 S.3       1 <0>         0.0093
     19 C14         0.0323   -3.3267   -1.5993 C.3       1 <0>        -0.0452
     20 C15        -0.4920   -2.9026   -2.9738 C.3       1 <0>        -0.1101
     21 C16         0.2792   -1.6852   -3.4944 C.3       1 <0>        -0.1189
     22 C17         0.0010   -0.5122   -2.5658 C.2       1 <0>         0.1649
     23 N3         -0.2266    0.6865   -3.0075 N.2       1 <0>        -0.2137
     24 N4         -0.2214    0.9379   -4.3858 N.am      1 <0>        -0.5793
     25 C18        -0.4578    2.1830   -4.8446 C.2       1 <0>         0.5757
     26 O3         -0.6756    3.0882   -4.0621 O.2       1 <0>        -0.4811
     27 C19        -0.4523    2.4479   -6.2971 C.ar      1 <0>        -0.1738
     28 C20        -0.2083    1.4097   -7.1991 C.ar      1 <0>        -0.0598
     29 C21        -0.2050    1.6638   -8.5540 C.ar      1 <0>        -0.1367
     30 C22        -0.4424    2.9446   -9.0234 C.ar      1 <0>        -0.0580
     31 C23        -0.6849    3.9786   -8.1390 C.ar      1 <0>        -0.1613
     32 C24        -0.6971    3.7384   -6.7770 C.ar      1 <0>         0.1663
     33 F1         -0.9397    4.7482   -5.9128 F         1 <0>        -0.1110
     34 H1          1.0042    1.8801    0.0026 H         1 <0>         0.0801
     35 H2         -0.5455    1.8639   -0.8728 H         1 <0>         0.0897
     36 H3         -0.5286    1.8543    0.9071 H         1 <0>         0.0876
     37 H4          0.0652   -2.2633    3.2626 H         1 <0>         0.4331
     38 H5          0.0165    2.7203    6.6801 H         1 <0>         0.1353
     39 H6          0.0416    2.8653    9.1077 H         1 <0>         0.1359
     40 H7          0.0949    0.8402   10.5045 H         1 <0>         0.1400
     41 H8          0.1236   -1.3846    9.4279 H         1 <0>         0.1346
     42 H9          1.0498   -3.7047   -1.6991 H         1 <0>         0.1052
     43 H10        -0.6080   -4.1088   -1.1914 H         1 <0>         0.1019
     44 H11        -0.3734   -3.7294   -3.6742 H         1 <0>         0.0950
     45 H12        -1.5493   -2.6503   -2.8928 H         1 <0>         0.0775
     46 H13         1.3473   -1.9024   -3.5021 H         1 <0>         0.1005
     47 H14        -0.0545   -1.4426   -4.5033 H         1 <0>         0.0789
     48 H15        -0.0477    0.2159   -5.0098 H         1 <0>         0.3844
     49 H16        -0.0221    0.4099   -6.8357 H         1 <0>         0.1321
     50 H17        -0.0164    0.8612   -9.2516 H         1 <0>         0.1397
     51 H18        -0.4377    3.1366  -10.0862 H         1 <0>         0.1421
     52 H19        -0.8689    4.9752   -8.5123 H         1 <0>         0.1473
@<TRIPOS>BOND
     1    1    2 1
     2    1   34 1
     3    1   35 1
     4    1   36 1
     5    2    6 2
     6    2    3 1
     7    3   22 1
     8    3    4 2
     9    4    5 1
    10    4   19 1
    11    5    6 1
    12    6    7 1
    13    7    8 2
    14    7    9 am
    15    9   10 1
    16    9   37 1
    17   10   18 1
    18   10   11 2
    19   11   12 1
    20   12   17 ar
    21   12   13 ar
    22   13   14 ar
    23   13   38 1
    24   14   15 ar
    25   14   39 1
    26   15   16 ar
    27   15   40 1
    28   16   17 ar
    29   16   41 1
    30   17   18 1
    31   19   20 1
    32   19   42 1
    33   19   43 1
    34   20   21 1
    35   20   44 1
    36   20   45 1
    37   21   22 1
    38   21   46 1
    39   21   47 1
    40   22   23 2
    41   23   24 1
    42   24   25 am
    43   24   48 1
    44   25   26 2
    45   25   27 1
    46   27   32 ar
    47   27   28 ar
    48   28   29 ar
    49   28   49 1
    50   29   30 ar
    51   29   50 1
    52   30   31 ar
    53   30   51 1
    54   31   32 ar
    55   31   52 1
    56   32   33 1
@<TRIPOS>MOLECULE
ZINC40288104
   50    52     0     0     0
SMALL
USER_CHARGES

@<TRIPOS>ATOM
      1 C1          0.5560   -0.2019    3.7899 C.3       1 <0>        -0.1356
      2 C2         -0.2821    1.0731    3.9038 C.3       1 <0>        -0.1018
      3 C3          0.1789    1.8795    5.1197 C.3       1 <0>        -0.1503
      4 C4         -0.1061    1.9139    2.6377 C.3       1 <0>         0.1785
      5 H1         -0.4344    1.3395    1.7716 H         1 <0>         0.1302
      6 C5         -0.9315    3.1698    2.7499 C.2       1 <0>         0.4617
      7 O1         -0.3951    4.2514    2.7034 O.2       1 <0>        -0.5009
      8 O2         -2.2626    3.0867    2.9016 O.3       1 <0>        -0.3441
      9 C6         -2.9822    4.3173    3.0013 C.3       1 <0>         0.0325
     10 N1          1.3062    2.2702    2.4805 N.am      1 <0>        -0.7308
     11 C7          2.1536    1.4149    1.8748 C.2       1 <0>         0.7229
     12 O3          1.7644    0.3161    1.5293 O.2       1 <0>        -0.5644
     13 N2          3.4324    1.7777    1.6521 N.am      1 <0>        -0.6133
     14 C8          4.3409    0.9090    0.8889 C.3       1 <0>         0.1213
     15 C9          5.4759    0.4370    1.8060 C.3       1 <0>        -0.0549
     16 C10         5.9910    1.6177    2.5904 C.2       1 <0>         0.0314
     17 C11         5.3173    2.7764    2.7548 C.2       1 <0>        -0.0499
     18 N3          6.0950    3.5904    3.5183 N.pl3     1 <0>        -0.5516
     19 H2          5.8786    4.4907    3.8073 H         1 <0>         0.4224
     20 C12         7.2281    2.9054    3.7975 C.2       1 <0>         0.1966
     21 N4          7.1558    1.7264    3.2372 N.2       1 <0>        -0.4827
     22 C13         3.9549    3.0587    2.1622 C.3       1 <0>         0.2719
     23 H3          3.2893    3.4512    2.9309 H         1 <0>         0.1007
     24 C14         4.0770    4.0491    1.0330 C.ar      1 <0>        -0.1153
     25 C15         4.9468    3.8007   -0.0127 C.ar      1 <0>        -0.0517
     26 C16         5.0596    4.7076   -1.0492 C.ar      1 <0>        -0.1458
     27 C17         4.3012    5.8659   -1.0408 C.ar      1 <0>         0.1378
     28 C18         3.4299    6.1142    0.0071 C.ar      1 <0>        -0.1308
     29 C19         3.3151    5.2023    1.0406 C.ar      1 <0>        -0.0463
     30 Br1         2.3929    7.6954    0.0210 Br        1 <0>        -0.0196
     31 F1          4.4111    6.7534   -2.0534 F         1 <0>        -0.1198
     32 H4          1.6067    0.0632    3.6730 H         1 <0>         0.0584
     33 H5          0.4306   -0.8009    4.6919 H         1 <0>         0.0520
     34 H6          0.2276   -0.7763    2.9238 H         1 <0>         0.0692
     35 H7         -1.3328    0.8081    4.0208 H         1 <0>         0.0947
     36 H8          1.2297    2.1446    5.0027 H         1 <0>         0.0554
     37 H9         -0.4181    2.7878    5.2008 H         1 <0>         0.0491
     38 H10         0.0535    1.2805    6.0217 H         1 <0>         0.0660
     39 H11        -4.0452    4.1079    3.1204 H         1 <0>         0.1068
     40 H12        -2.6236    4.8790    3.8638 H         1 <0>         0.0628
     41 H13        -2.8266    4.9035    2.0957 H         1 <0>         0.0634
     42 H14         1.6315    3.1217    2.8124 H         1 <0>         0.4011
     43 H15         3.7908    0.0450    0.5159 H         1 <0>         0.1112
     44 H16         4.7582    1.4659    0.0500 H         1 <0>         0.0776
     45 H17         5.0993   -0.3214    2.4925 H         1 <0>         0.0862
     46 H18         6.2823    0.0188    1.2035 H         1 <0>         0.0951
     47 H19         8.0562    3.2725    4.3857 H         1 <0>         0.2131
     48 H20         5.5388    2.8974   -0.0192 H         1 <0>         0.1453
     49 H21         5.7395    4.5131   -1.8655 H         1 <0>         0.1497
     50 H22         2.6327    5.3931    1.8557 H         1 <0>         0.1447
@<TRIPOS>BOND
     1    1    2 1
     2    1   32 1
     3    1   33 1
     4    1   34 1
     5    2    3 1
     6    2    4 1
     7    2   35 1
     8    3   36 1
     9    3   37 1
    10    3   38 1
    11    4    5 1
    12    4    6 1
    13    4   10 1
    14    6    7 2
    15    6    8 1
    16    8    9 1
    17    9   39 1
    18    9   40 1
    19    9   41 1
    20   10   11 am
    21   10   42 1
    22   11   12 2
    23   11   13 am
    24   13   22 1
    25   13   14 1
    26   14   15 1
    27   14   43 1
    28   14   44 1
    29   15   16 1
    30   15   45 1
    31   15   46 1
    32   16   21 1
    33   16   17 2
    34   17   18 1
    35   17   22 1
    36   18   19 1
    37   18   20 1
    38   20   21 2
    39   20   47 1
    40   22   23 1
    41   22   24 1
    42   24   29 ar
    43   24   25 ar
    44   25   26 ar
    45   25   48 1
    46   26   27 ar
    47   26   49 1
    48   27   28 ar
    49   27   31 1
    50   28   29 ar
    51   28   30 1
    52   29   50 1
@<TRIPOS>MOLECULE
ZINC08964117
   61    64     0     0     0
SMALL
USER_CHARGES
N-[(2S)-2-(1-methylindolin-5-yl)-2-pyrrolidin-1-yl-ethyl]-N'-[4-(trifluoromethyl)phenyl]oxamide
@<TRIPOS>ATOM
      1 C1          4.5279  -13.5306    1.0658 C.3       1 <0>         0.0124
      2 N1          5.4490  -12.7987    0.1862 N.pl3     1 <0>        -0.4787
      3 C2          5.1946  -13.1219   -1.2345 C.3       1 <0>         0.0422
      4 C3          5.5851  -11.8109   -1.9548 C.3       1 <0>        -0.0907
      5 C4          5.3819  -10.7625   -0.8791 C.ar      1 <0>        -0.1255
      6 C5          5.3023  -11.4152    0.3455 C.ar      1 <0>         0.1347
      7 C6          5.1039  -10.6637    1.5023 C.ar      1 <0>        -0.1280
      8 C7          4.9991   -9.2901    1.4278 C.ar      1 <0>        -0.0856
      9 C8          5.0789   -8.6505    0.2047 C.ar      1 <0>        -0.1797
     10 C9          5.2724   -9.3898   -0.9485 C.ar      1 <0>        -0.0488
     11 C10         4.9615   -7.1500    0.1285 C.3       1 <0>         0.0840
     12 H1          5.3938   -6.7988   -0.8085 H         1 <0>         0.1475
     13 C11         3.4861   -6.7500    0.1910 C.3       1 <0>         0.1051
     14 N2          2.7946   -7.2463   -1.0013 N.am      1 <0>        -0.6976
     15 C12         1.4978   -6.9405   -1.2046 C.2       1 <0>         0.5207
     16 O1          0.9030   -6.2539   -0.3999 O.2       1 <0>        -0.4973
     17 C13         0.7929   -7.4465   -2.4202 C.2       1 <0>         0.5106
     18 O2          1.3879   -8.1331   -3.2250 O.2       1 <0>        -0.4887
     19 N3         -0.5039   -7.1406   -2.6235 N.am      1 <0>        -0.6395
     20 C14        -1.1915   -7.6964   -3.7054 C.ar      1 <0>         0.1657
     21 C15        -0.8827   -8.9787   -4.1421 C.ar      1 <0>        -0.1211
     22 C16        -1.5646   -9.5251   -5.2114 C.ar      1 <0>        -0.0477
     23 C17        -2.5538   -8.7975   -5.8475 C.ar      1 <0>        -0.1888
     24 C18        -2.8637   -7.5209   -5.4154 C.ar      1 <0>        -0.0459
     25 C19        -2.1858   -6.9683   -4.3467 C.ar      1 <0>        -0.1361
     26 C20        -3.2957   -9.3972   -7.0141 C.3       1 <0>         0.5088
     27 F1         -4.4237  -10.0808   -6.5477 F         1 <0>        -0.1737
     28 F2         -3.6952   -8.3786   -7.8859 F         1 <0>        -0.1745
     29 F3         -2.4571  -10.2887   -7.6916 F         1 <0>        -0.1752
     30 C21         7.1180   -6.9207    1.2354 C.3       1 <0>        -0.0022
     31 C22         7.7836   -5.8284    2.1096 C.3       1 <0>        -0.1468
     32 C23         6.9885   -4.5558    1.7376 C.3       1 <0>        -0.1443
     33 C24         5.6497   -5.0682    1.1750 C.3       1 <0>        -0.0167
     34 H2          4.6610  -14.6026    0.9200 H         1 <0>         0.0869
     35 H3          4.7383  -13.2763    2.1046 H         1 <0>         0.0794
     36 H4          3.5008  -13.2561    0.8253 H         1 <0>         0.0463
     37 H5          4.1416  -13.3529   -1.3959 H         1 <0>         0.0706
     38 H6          5.8250  -13.9474   -1.5652 H         1 <0>         0.1064
     39 H7          4.9267  -11.6258   -2.8035 H         1 <0>         0.0930
     40 H8          6.6273  -11.8408   -2.2727 H         1 <0>         0.0976
     41 H9          5.0357  -11.1577    2.4602 H         1 <0>         0.1347
     42 H10         4.8501   -8.7125    2.3281 H         1 <0>         0.1219
     43 H11         5.3375   -8.8912   -1.9043 H         1 <0>         0.1328
     44 H12         3.4055   -5.6638    0.2320 H         1 <0>         0.0995
     45 H13         3.0300   -7.1820    1.0818 H         1 <0>         0.0970
     46 H14         3.2701   -7.7951   -1.6445 H         1 <0>         0.4193
     47 H15        -0.9598   -6.5346   -2.0187 H         1 <0>         0.4283
     48 H16        -0.1105   -9.5475   -3.6456 H         1 <0>         0.1451
     49 H17        -1.3220  -10.5201   -5.5542 H         1 <0>         0.1441
     50 H18        -3.6368   -6.9554   -5.9143 H         1 <0>         0.1468
     51 H19        -2.4286   -5.9714   -4.0095 H         1 <0>         0.1438
     52 H20         7.2640   -7.9073    1.6752 H         1 <0>         0.1381
     53 H21         7.5084   -6.8902    0.2182 H         1 <0>         0.1349
     54 H22         8.8362   -5.7151    1.8502 H         1 <0>         0.1175
     55 H23         7.6689   -6.0590    3.1687 H         1 <0>         0.0987
     56 H24         7.5233   -3.9837    0.9794 H         1 <0>         0.1046
     57 H25         6.8174   -3.9442    2.6234 H         1 <0>         0.1063
     58 H26         5.5396   -4.7562    0.1365 H         1 <0>         0.1327
     59 H27         4.8216   -4.6810    1.7687 H         1 <0>         0.1365
     60 N4          5.7004   -6.5279    1.2682 N.4       1 <0>        -0.3889
     61 H28         5.2760   -6.8339    2.1516 H         1 <0>         0.4273
@<TRIPOS>BOND
     1    1    2 1
     2    1   34 1
     3    1   35 1
     4    1   36 1
     5    2    6 1
     6    2    3 1
     7    3    4 1
     8    3   37 1
     9    3   38 1
    10    4    5 1
    11    4   39 1
    12    4   40 1
    13    5   10 ar
    14    5    6 ar
    15    6    7 ar
    16    7    8 ar
    17    7   41 1
    18    8    9 ar
    19    8   42 1
    20    9   10 ar
    21    9   11 1
    22   10   43 1
    23   11   12 1
    24   11   13 1
    25   11   60 1
    26   13   14 1
    27   13   44 1
    28   13   45 1
    29   14   15 am
    30   14   46 1
    31   15   16 2
    32   15   17 1
    33   17   18 2
    34   17   19 am
    35   19   20 1
    36   19   47 1
    37   20   25 ar
    38   20   21 ar
    39   21   22 ar
    40   21   48 1
    41   22   23 ar
    42   22   49 1
    43   23   24 ar
    44   23   26 1
    45   24   25 ar
    46   24   50 1
    47   25   51 1
    48   26   27 1
    49   26   28 1
    50   26   29 1
    51   30   31 1
    52   30   52 1
    53   30   53 1
    54   30   60 1
    55   31   32 1
    56   31   54 1
    57   31   55 1
    58   32   33 1
    59   32   56 1
    60   32   57 1
    61   33   58 1
    62   33   59 1
    63   33   60 1
    64   60   61 1
@<TRIPOS>MOLECULE
ZINC31688432
   51    53     0     0     0
SMALL
USER_CHARGES
N-[(1R)-1-(4-methylsulfanylphenyl)ethyl]-4-(4-pyridylsulfamoyl)benzamide
@<TRIPOS>ATOM
      1 C1         -2.0034    5.5155   -0.7670 C.3       1 <0>        -0.1581
      2 C2         -1.4627    5.2046    0.6301 C.3       1 <0>         0.1876
      3 H1         -2.2304    4.7213    1.2523 H         1 <0>         0.1020
      4 C3         -1.0030    6.4809    1.2864 C.ar      1 <0>        -0.1019
      5 C4          0.2334    7.0132    0.9691 C.ar      1 <0>        -0.0972
      6 C5          0.6559    8.1851    1.5648 C.ar      1 <0>        -0.1305
      7 C6         -0.1586    8.8241    2.4921 C.ar      1 <0>        -0.0782
      8 C7         -1.3981    8.2834    2.8124 C.ar      1 <0>        -0.0913
      9 C8         -1.8162    7.1140    2.2087 C.ar      1 <0>        -0.0837
     10 S1          0.3794   10.3158    3.2602 S.3       1 <0>        -0.1069
     11 C9          2.0163   10.6156    2.5383 C.3       1 <0>        -0.1493
     12 N1         -0.3338    4.2772    0.5216 N.am      1 <0>        -0.7266
     13 C10        -0.5563    2.9497    0.4532 C.2       1 <0>         0.5494
     14 O1         -1.6937    2.5219    0.4817 O.2       1 <0>        -0.5184
     15 C11         0.5829    2.0138    0.3437 C.ar      1 <0>        -0.0603
     16 C12         1.8899    2.5021    0.3050 C.ar      1 <0>        -0.1089
     17 C13         2.9483    1.6238    0.1970 C.ar      1 <0>        -0.0322
     18 C14         2.7163    0.2615    0.1276 C.ar      1 <0>        -0.6708
     19 C15         1.4232   -0.2290    0.1650 C.ar      1 <0>        -0.0169
     20 C16         0.3559    0.6385    0.2728 C.ar      1 <0>        -0.0770
     21 S2          4.0738   -0.8534   -0.0096 S.o2      1 <0>         2.6848
     22 O2          5.2294   -0.1397    0.4078 O.2       1 <0>        -0.9338
     23 O3          3.6654   -2.0681    0.6045 O.2       1 <0>        -0.9160
     24 N2          4.2765   -1.1821   -1.6200 N.pl3     1 <0>        -1.0898
     25 C17         4.6242   -0.1616   -2.5001 C.ar      1 <0>         0.2701
     26 C18         3.6885    0.3656   -3.3898 C.ar      1 <0>        -0.1381
     27 C19         4.0716    1.3801   -4.2417 C.ar      1 <0>         0.1495
     28 N3          5.3074    1.8436   -4.2293 N.ar      1 <0>        -0.4653
     29 C20         6.2230    1.3674   -3.4065 C.ar      1 <0>         0.1504
     30 C21         5.9190    0.3565   -2.5193 C.ar      1 <0>        -0.1325
     31 H2         -2.3389    4.5838   -1.2460 H         1 <0>         0.0659
     32 H3         -1.2089    5.9743   -1.3739 H         1 <0>         0.0595
     33 H4         -2.8510    6.2118   -0.6855 H         1 <0>         0.0749
     34 H5          0.8676    6.5138    0.2517 H         1 <0>         0.1191
     35 H6          1.6197    8.6025    1.3135 H         1 <0>         0.1256
     36 H7         -2.0338    8.7774    3.5323 H         1 <0>         0.1342
     37 H8         -2.7792    6.6931    2.4574 H         1 <0>         0.1333
     38 H9          2.4401   11.5384    2.9613 H         1 <0>         0.1145
     39 H10         1.9221   10.7217    1.4475 H         1 <0>         0.0853
     40 H11         2.6792    9.7685    2.7684 H         1 <0>         0.0847
     41 H12         0.6955    4.6643    0.4960 H         1 <0>         0.4148
     42 H13         2.0723    3.5652    0.3592 H         1 <0>         0.1381
     43 H14         3.9601    2.0003    0.1670 H         1 <0>         0.1456
     44 H15         1.2489   -1.2935    0.1100 H         1 <0>         0.1528
     45 H16        -0.6530    0.2543    0.3025 H         1 <0>         0.1546
     46 H17         4.1363   -2.2070   -1.9940 H         1 <0>         0.4806
     47 H18         2.6770   -0.0125   -3.4086 H         1 <0>         0.1889
     48 H19         3.3526    1.7972   -4.9313 H         1 <0>         0.2129
     49 H20         7.2231    1.7744   -3.4286 H         1 <0>         0.2159
     50 H21         6.6730   -0.0289   -1.8489 H         1 <0>         0.1945
     51 H22         5.5993    2.6500   -4.9182 H         1 <0>         0.4944
@<TRIPOS>BOND
     1    1    2 1
     2    1   31 1
     3    1   32 1
     4    1   33 1
     5    2    3 1
     6    2    4 1
     7    2   12 1
     8    4    9 ar
     9    4    5 ar
    10    5    6 ar
    11    5   34 1
    12    6    7 ar
    13    6   35 1
    14    7    8 ar
    15    7   10 1
    16    8    9 ar
    17    8   36 1
    18    9   37 1
    19   10   11 1
    20   11   38 1
    21   11   39 1
    22   11   40 1
    23   12   13 am
    24   12   41 1
    25   13   14 2
    26   13   15 1
    27   15   20 ar
    28   15   16 ar
    29   16   17 ar
    30   16   42 1
    31   17   18 ar
    32   17   43 1
    33   18   19 ar
    34   18   21 1
    35   19   20 ar
    36   19   44 1
    37   20   45 1
    38   21   22 2
    39   21   23 2
    40   21   24 1
    41   24   25 1
    42   24   46 1
    43   25   30 ar
    44   25   26 ar
    45   26   27 ar
    46   26   47 1
    47   27   28 ar
    48   27   48 1
    49   28   29 ar
    50   28   51 1
    51   29   30 ar
    52   29   49 1
    53   30   50 1
@<TRIPOS>MOLECULE
ZINC39637507
   72    75     0     0     0
SMALL
USER_CHARGES

@<TRIPOS>ATOM
      1 C1         -2.9207   -4.8831   -1.3585 C.3       1 <0>        -0.1542
      2 C2         -1.8082   -3.9706   -0.8385 C.3       1 <0>         0.0528
      3 O1         -1.1756   -4.5842    0.2864 O.3       1 <0>        -0.3136
      4 C3         -0.1580   -3.8993    0.8716 C.ar      1 <0>         0.1283
      5 C4          0.2192   -2.6586    0.3753 C.ar      1 <0>        -0.1781
      6 C5          1.2535   -1.9574    0.9665 C.ar      1 <0>        -0.0814
      7 C6          1.9185   -2.4863    2.0540 C.ar      1 <0>        -0.0973
      8 C7          1.5465   -3.7327    2.5599 C.ar      1 <0>        -0.1025
      9 C8          0.4984   -4.4365    1.9659 C.ar      1 <0>        -0.1323
     10 C9          2.2571   -4.3028    3.7245 C.2       1 <0>         0.5924
     11 O2          2.8267   -3.5686    4.5080 O.2       1 <0>        -0.5232
     12 N1          2.2731   -5.6366    3.9174 N.am      1 <0>        -0.6193
     13 C10         1.7531   -6.6911    3.0152 C.3       1 <0>         0.1023
     14 C11         2.7925   -7.8307    3.1070 C.3       1 <0>        -0.1155
     15 H1          3.5162   -7.7505    2.2958 H         1 <0>         0.1122
     16 C12         3.4845   -7.6223    4.4645 C.3       1 <0>        -0.0720
     17 C13         2.8207   -6.3806    5.0769 C.3       1 <0>         0.1085
     18 C14         4.9760   -7.3710    4.2643 C.3       1 <0>        -0.1342
     19 C15         5.6518   -7.2237    5.6304 C.3       1 <0>        -0.0112
     20 N2          5.4421   -8.4456    6.4163 N.4       1 <0>        -0.5043
     21 C16         4.0106   -8.6300    6.6833 C.3       1 <0>        -0.0081
     22 C17         3.2652   -8.8366    5.3617 C.3       1 <0>        -0.1489
     23 C18         2.1060   -9.1716    3.0657 C.2       1 <0>         0.5209
     24 O3          0.9516   -9.2731    3.4234 O.2       1 <0>        -0.5184
     25 N3          2.7748  -10.2580    2.6313 N.am      1 <0>        -0.7228
     26 C19         2.1074  -11.5616    2.5911 C.3       1 <0>         0.1478
     27 H2          1.4183  -11.6430    3.4317 H         1 <0>         0.0962
     28 C20         1.3307  -11.6967    1.2799 C.3       1 <0>        -0.1302
     29 C21         0.6337  -13.0581    1.2380 C.3       1 <0>        -0.1208
     30 C22         1.6808  -14.1701    1.3274 C.3       1 <0>        -0.1201
     31 C23         2.4575  -14.0350    2.6387 C.3       1 <0>        -0.0829
     32 H3          3.2034  -14.8272    2.7024 H         1 <0>         0.0768
     33 C24         3.1545  -12.6736    2.6806 C.3       1 <0>        -0.0935
     34 H4          3.8437  -12.5922    1.8400 H         1 <0>         0.0767
     35 C25         3.9312  -12.5385    3.9918 C.3       1 <0>        -0.1486
     36 C26         1.4902  -14.1492    3.8185 C.3       1 <0>        -0.1574
     37 H5         -3.6568   -5.0438   -0.5708 H         1 <0>         0.0683
     38 H6         -3.4033   -4.4150   -2.2166 H         1 <0>         0.0828
     39 H7         -2.4949   -5.8404   -1.6588 H         1 <0>         0.0672
     40 H8         -1.0722   -3.8098   -1.6263 H         1 <0>         0.0650
     41 H9         -2.2340   -3.0132   -0.5383 H         1 <0>         0.0658
     42 H10        -0.2972   -2.2400   -0.4759 H         1 <0>         0.1364
     43 H11         1.5423   -0.9928    0.5759 H         1 <0>         0.1377
     44 H12         2.7266   -1.9362    2.5131 H         1 <0>         0.1370
     45 H13         0.2028   -5.3993    2.3559 H         1 <0>         0.1419
     46 H14         0.7781   -7.0375    3.3579 H         1 <0>         0.1038
     47 H15         1.6872   -6.3182    1.9931 H         1 <0>         0.1019
     48 H16         3.5594   -5.7756    5.6027 H         1 <0>         0.0910
     49 H17         2.0182   -6.6754    5.7531 H         1 <0>         0.0856
     50 H18         5.4178   -8.2111    3.7284 H         1 <0>         0.0958
     51 H19         5.1168   -6.4566    3.6881 H         1 <0>         0.1187
     52 H20         6.7205   -7.0604    5.4911 H         1 <0>         0.1399
     53 H21         5.2207   -6.3735    6.1590 H         1 <0>         0.1348
     54 H22         5.7917   -9.2395    5.9010 H         1 <0>         0.4269
     55 H23         3.8695   -9.5034    7.3201 H         1 <0>         0.1392
     56 H24         3.6185   -7.7466    7.1871 H         1 <0>         0.1338
     57 H25         2.1999   -8.9553    5.5595 H         1 <0>         0.1253
     58 H26         3.6454   -9.7293    4.8652 H         1 <0>         0.0996
     59 H27         3.6981  -10.1769    2.3451 H         1 <0>         0.3977
     60 H28         0.5848  -10.9045    1.2162 H         1 <0>         0.0686
     61 H29         2.0199  -11.6153    0.4393 H         1 <0>         0.0644
     62 H30        -0.0554  -13.1395    2.0786 H         1 <0>         0.0687
     63 H31         0.0804  -13.1544    0.3038 H         1 <0>         0.0683
     64 H32         1.1842  -15.1400    1.2976 H         1 <0>         0.0688
     65 H33         2.3699  -14.0887    0.4869 H         1 <0>         0.0642
     66 H34         3.2421  -12.6198    4.8324 H         1 <0>         0.0612
     67 H35         4.6772  -13.3307    4.0555 H         1 <0>         0.0617
     68 H36         4.4278  -11.5686    4.0217 H         1 <0>         0.0435
     69 H37         0.9936  -15.1191    3.7887 H         1 <0>         0.0596
     70 H38         2.0435  -14.0529    4.7527 H         1 <0>         0.0554
     71 H39         0.7442  -13.3570    3.7548 H         1 <0>         0.0610
     72 H40         5.9391   -8.3707    7.2912 H         1 <0>         0.4343
@<TRIPOS>BOND
     1    1    2 1
     2    1   37 1
     3    1   38 1
     4    1   39 1
     5    2    3 1
     6    2   40 1
     7    2   41 1
     8    3    4 1
     9    4    9 ar
    10    4    5 ar
    11    5    6 ar
    12    5   42 1
    13    6    7 ar
    14    6   43 1
    15    7    8 ar
    16    7   44 1
    17    8    9 ar
    18    8   10 1
    19    9   45 1
    20   10   11 2
    21   10   12 am
    22   12   17 1
    23   12   13 1
    24   13   14 1
    25   13   46 1
    26   13   47 1
    27   14   15 1
    28   14   16 1
    29   14   23 1
    30   16   22 1
    31   16   17 1
    32   16   18 1
    33   17   48 1
    34   17   49 1
    35   18   19 1
    36   18   50 1
    37   18   51 1
    38   19   20 1
    39   19   52 1
    40   19   53 1
    41   20   21 1
    42   20   54 1
    43   20   72 1
    44   21   22 1
    45   21   55 1
    46   21   56 1
    47   22   57 1
    48   22   58 1
    49   23   24 2
    50   23   25 am
    51   25   26 1
    52   25   59 1
    53   26   27 1
    54   26   33 1
    55   26   28 1
    56   28   29 1
    57   28   60 1
    58   28   61 1
    59   29   30 1
    60   29   62 1
    61   29   63 1
    62   30   31 1
    63   30   64 1
    64   30   65 1
    65   31   32 1
    66   31   33 1
    67   31   36 1
    68   33   34 1
    69   33   35 1
    70   35   66 1
    71   35   67 1
    72   35   68 1
    73   36   69 1
    74   36   70 1
    75   36   71 1
@<TRIPOS>MOLECULE
ZINC39769015
   48    52     0     0     0
SMALL
USER_CHARGES

@<TRIPOS>ATOM
      1 C1         -0.1084    1.2926   -0.1938 C.ar      1 <0>        -0.0567
      2 C2          0.2653    0.4359   -1.2165 C.ar      1 <0>        -0.1137
      3 C3          1.4835   -0.2049   -1.1738 C.ar      1 <0>        -0.0541
      4 C4          2.3483    0.0129   -0.0887 C.ar      1 <0>        -0.1680
      5 C5          1.9600    0.8838    0.9427 C.ar      1 <0>        -0.0600
      6 C6          0.7373    1.5144    0.8809 C.ar      1 <0>        -0.1147
      7 C7          3.6044   -0.6420   -0.0345 C.2       1 <0>         0.2692
      8 C8          4.8040    0.0738   -0.0825 C.ar      1 <0>        -0.1725
      9 C9          4.8004    1.4807   -0.1869 C.ar      1 <0>         0.0115
     10 C10         5.9822    2.1527   -0.2313 C.ar      1 <0>        -0.1619
     11 C11         7.2005    1.4799   -0.1756 C.ar      1 <0>         0.0762
     12 C12         7.2683    0.1234   -0.0745 C.ar      1 <0>        -0.2154
     13 C13         6.0862   -0.6366   -0.0236 C.ar      1 <0>         0.3388
     14 N1          6.1545   -1.9684    0.0757 N.am      1 <0>        -0.5943
     15 C14         5.0940   -2.7504    0.1283 C.2       1 <0>         0.5069
     16 O1          5.2320   -3.9563    0.2181 O.2       1 <0>        -0.3778
     17 C15         3.7071   -2.1505    0.0844 C.3       1 <0>        -0.1595
     18 H1          3.1837   -2.5895   -0.7650 H         1 <0>         0.1954
     19 S1          2.8288   -2.6514    1.5905 S.3       1 <0>         0.1503
     20 C16         2.8836   -4.4121    1.5503 C.2       1 <0>         0.1389
     21 N2          3.4490   -5.1534    0.6242 N.2       1 <0>        -0.2289
     22 N3          3.3034   -6.3988    0.9059 N.2       1 <0>        -0.2381
     23 C17         2.6362   -6.5292    2.0290 C.2       1 <0>         0.2145
     24 N4          2.3515   -5.2607    2.4791 N.pl3     1 <0>        -0.2941
     25 N5          1.6755   -4.9208    3.6164 N.3       1 <0>        -0.5865
     26 C18         2.2652   -7.7992    2.6880 C.ar      1 <0>        -0.0775
     27 C19         0.9646   -7.9925    3.1560 C.ar      1 <0>        -0.0758
     28 C20         0.6247   -9.1799    3.7702 C.ar      1 <0>        -0.1228
     29 C21         1.5693  -10.1796    3.9236 C.ar      1 <0>        -0.0613
     30 C22         2.8605   -9.9966    3.4634 C.ar      1 <0>        -0.1485
     31 C23         3.2137   -8.8144    2.8404 C.ar      1 <0>         0.1506
     32 F1          4.4736   -8.6383    2.3855 F         1 <0>        -0.1191
     33 H2         -1.0637    1.7944   -0.2369 H         1 <0>         0.1433
     34 H3         -0.4012    0.2697   -2.0499 H         1 <0>         0.1461
     35 H4          1.7727   -0.8729   -1.9716 H         1 <0>         0.1391
     36 H5          2.6176    1.0577    1.7815 H         1 <0>         0.1409
     37 H6          0.4367    2.1844    1.6728 H         1 <0>         0.1469
     38 H7          3.8659    2.0203   -0.2318 H         1 <0>         0.1666
     39 H8          5.9758    3.2297   -0.3116 H         1 <0>         0.1631
     40 H9          8.1171    2.0498   -0.2140 H         1 <0>         0.1669
     41 H10         8.2291   -0.3681   -0.0335 H         1 <0>         0.1704
     42 H11         0.6787   -4.9291    3.4607 H         1 <0>         0.3718
     43 H12         1.9271   -5.5282    4.3818 H         1 <0>         0.3850
     44 H13         0.2258   -7.2137    3.0378 H         1 <0>         0.1285
     45 H14        -0.3815   -9.3297    4.1328 H         1 <0>         0.1433
     46 H15         1.2969  -11.1070    4.4054 H         1 <0>         0.1463
     47 H16         3.5929  -10.7807    3.5866 H         1 <0>         0.1504
     48 H17         7.0314   -2.3815    0.1105 H         1 <0>         0.4406
@<TRIPOS>BOND
     1    1    6 ar
     2    1    2 ar
     3    1   33 1
     4    2    3 ar
     5    2   34 1
     6    3    4 ar
     7    3   35 1
     8    4    5 ar
     9    4    7 1
    10    5    6 ar
    11    5   36 1
    12    6   37 1
    13    7   17 1
    14    7    8 2
    15    8   13 ar
    16    8    9 ar
    17    9   10 ar
    18    9   38 1
    19   10   11 ar
    20   10   39 1
    21   11   12 ar
    22   11   40 1
    23   12   13 ar
    24   12   41 1
    25   13   14 2
    26   14   15 am
    27   14   48 1
    28   15   16 2
    29   15   17 1
    30   17   18 1
    31   17   19 1
    32   19   20 1
    33   20   24 1
    34   20   21 2
    35   21   22 1
    36   22   23 2
    37   23   24 1
    38   23   26 1
    39   24   25 1
    40   25   42 1
    41   25   43 1
    42   26   31 ar
    43   26   27 ar
    44   27   28 ar
    45   27   44 1
    46   28   29 ar
    47   28   45 1
    48   29   30 ar
    49   29   46 1
    50   30   31 ar
    51   30   47 1
    52   31   32 1
@<TRIPOS>MOLECULE
ZINC64761316
   62    65     0     0     0
SMALL
USER_CHARGES

@<TRIPOS>ATOM
      1 C1          1.0174   -0.0048    0.2751 C.3       1 <0>        -0.1189
      2 C2          2.0009   -0.2407    1.3923 C.2       1 <0>         0.1915
      3 C3          3.3214   -0.3244    1.1163 C.2       1 <0>        -0.2689
      4 S1          4.0189   -0.5998    2.7374 S.3       1 <0>         0.1398
      5 C4          2.4960   -0.5818    3.6553 C.2       1 <0>         0.1845
      6 N1          1.5505   -0.3628    2.6776 N.pl3     1 <0>        -0.4534
      7 C5          0.3317   -0.3347    3.3507 C.2       1 <0>         0.2812
      8 C6          0.5887   -0.5281    4.6726 C.2       1 <0>         0.0653
      9 N2          1.9321   -0.6836    4.8200 N.2       1 <0>        -0.4020
     10 C7         -0.4175   -0.5728    5.7580 C.ar      1 <0>        -0.0292
     11 C8         -1.0326    0.6019    6.1917 C.ar      1 <0>        -0.0595
     12 C9         -1.9697    0.5536    7.2032 C.ar      1 <0>        -0.1440
     13 C10        -2.2998   -0.6565    7.7871 C.ar      1 <0>        -0.0967
     14 C11        -1.6933   -1.8249    7.3615 C.ar      1 <0>        -0.1303
     15 C12        -0.7586   -1.7906    6.3473 C.ar      1 <0>        -0.0808
     16 N3         -0.9249   -0.1425    2.7740 N.pl3     1 <0>        -0.7322
     17 C13        -1.7348    1.0180    3.1527 C.3       1 <0>         0.1887
     18 C14        -0.8150    2.1870    3.5108 C.3       1 <0>        -0.1669
     19 C15        -2.6338    1.4169    1.9807 C.3       1 <0>        -0.1545
     20 C16        -2.6017    0.6621    4.3622 C.3       1 <0>        -0.2216
     21 C17         4.0047   -0.2169   -0.1790 C.2       1 <0>         0.6316
     22 O1          3.3599   -0.0257   -1.1929 O.2       1 <0>        -0.5129
     23 N4          5.3461   -0.3300   -0.2447 N.am      1 <0>        -0.7223
     24 C18         6.0278   -0.2227   -1.5370 C.3       1 <0>         0.1392
     25 C19         6.0352   -1.5898   -2.2272 C.3       1 <0>        -0.1639
     26 C20         6.8172   -1.4888   -3.5386 C.3       1 <0>        -0.0027
     27 N5          8.1967   -1.0727   -3.2590 N.4       1 <0>        -0.3869
     28 C21         8.2013    0.2685   -2.6626 C.3       1 <0>        -0.0011
     29 C22         7.4725    0.2352   -1.3175 C.3       1 <0>        -0.1588
     30 C23         8.9639   -1.0525   -4.5116 C.3       1 <0>        -0.0474
     31 H1          0.8594    1.0664    0.1503 H         1 <0>         0.0937
     32 H2          1.4116   -0.4242   -0.6505 H         1 <0>         0.1130
     33 H3          0.0699   -0.4861    0.5175 H         1 <0>         0.0765
     34 H4         -0.7755    1.5472    5.7369 H         1 <0>         0.1277
     35 H5         -2.4463    1.4623    7.5400 H         1 <0>         0.1288
     36 H6         -3.0337   -0.6890    8.5788 H         1 <0>         0.1264
     37 H7         -1.9552   -2.7664    7.8213 H         1 <0>         0.1272
     38 H8         -0.2891   -2.7039    6.0129 H         1 <0>         0.1224
     39 H9         -1.2617   -0.7773    2.1225 H         1 <0>         0.4000
     40 H10        -0.7199    2.8509    2.6516 H         1 <0>         0.0615
     41 H11        -1.2380    2.7381    4.3507 H         1 <0>         0.0727
     42 H12         0.1682    1.8048    3.7852 H         1 <0>         0.0600
     43 H13        -3.2891    0.5841    1.7256 H         1 <0>         0.0621
     44 H14        -3.2365    2.2803    2.2625 H         1 <0>         0.0750
     45 H15        -2.0163    1.6705    1.1190 H         1 <0>         0.0581
     46 H16        -2.0166    0.0718    5.0674 H         1 <0>         0.1202
     47 H17        -2.9409    1.5770    4.8479 H         1 <0>         0.0643
     48 H18        -3.4650    0.0839    4.0329 H         1 <0>         0.0553
     49 H19         5.8602   -0.4824    0.5636 H         1 <0>         0.4082
     50 H20         5.5075    0.5009   -2.1646 H         1 <0>         0.1104
     51 H21         6.5099   -2.3237   -1.5759 H         1 <0>         0.0932
     52 H22         5.0107   -1.8971   -2.4370 H         1 <0>         0.1191
     53 H23         6.8242   -2.4604   -4.0326 H         1 <0>         0.1356
     54 H24         6.3415   -0.7549   -4.1891 H         1 <0>         0.1327
     55 H25         9.2302    0.5943   -2.5099 H         1 <0>         0.1382
     56 H26         7.6961    0.9650   -3.3318 H         1 <0>         0.1333
     57 H27         7.4754    1.2323   -0.8771 H         1 <0>         0.1222
     58 H28         7.9771   -0.4609   -0.6473 H         1 <0>         0.0970
     59 H29         8.5056   -0.3494   -5.2071 H         1 <0>         0.1229
     60 H30         9.9886   -0.7436   -4.3051 H         1 <0>         0.1251
     61 H31         8.9667   -2.0496   -4.9520 H         1 <0>         0.1251
     62 H32         8.6207   -1.7262   -2.6178 H         1 <0>         0.4255
@<TRIPOS>BOND
     1    1    2 1
     2    1   31 1
     3    1   32 1
     4    1   33 1
     5    2    6 1
     6    2    3 2
     7    3    4 1
     8    3   21 1
     9    4    5 1
    10    5    9 2
    11    5    6 1
    12    6    7 1
    13    7    8 2
    14    7   16 1
    15    8    9 1
    16    8   10 1
    17   10   15 ar
    18   10   11 ar
    19   11   12 ar
    20   11   34 1
    21   12   13 ar
    22   12   35 1
    23   13   14 ar
    24   13   36 1
    25   14   15 ar
    26   14   37 1
    27   15   38 1
    28   16   17 1
    29   16   39 1
    30   17   18 1
    31   17   19 1
    32   17   20 1
    33   18   40 1
    34   18   41 1
    35   18   42 1
    36   19   43 1
    37   19   44 1
    38   19   45 1
    39   20   46 1
    40   20   47 1
    41   20   48 1
    42   21   22 2
    43   21   23 am
    44   23   24 1
    45   23   49 1
    46   24   29 1
    47   24   25 1
    48   24   50 1
    49   25   26 1
    50   25   51 1
    51   25   52 1
    52   26   27 1
    53   26   53 1
    54   26   54 1
    55   27   28 1
    56   27   30 1
    57   27   62 1
    58   28   29 1
    59   28   55 1
    60   28   56 1
    61   29   57 1
    62   29   58 1
    63   30   59 1
    64   30   60 1
    65   30   61 1
@<TRIPOS>MOLECULE
ZINC15946648
   64    67     0     0     0
SMALL
USER_CHARGES
N-(2,4-dimethoxyphenyl)-2-[[2-[(2S)-2-methyl-1-piperidyl]acetyl]amino]-5,6-dihydro-4H-cyclopenta[d]thiophene-3-carboxamide
@<TRIPOS>ATOM
      1 C1         -1.4851    3.6045    2.4946 C.3       1 <0>        -0.1844
      2 C2         -0.7444    3.1100    1.2505 C.3       1 <0>         0.0085
      3 H1          0.2620    3.5284    1.2368 H         1 <0>         0.1659
      4 C3         -0.6596    1.5822    1.2812 C.3       1 <0>        -0.1359
      5 C4          0.0631    1.0907    0.0239 C.3       1 <0>        -0.1383
      6 C5         -0.6845    1.5911   -1.2151 C.3       1 <0>        -0.1419
      7 C6         -0.7673    3.1187   -1.1727 C.3       1 <0>        -0.0138
      8 C7         -1.6891    4.9908    0.0545 C.3       1 <0>        -0.0257
      9 C8         -0.3622    5.6997    0.1422 C.2       1 <0>         0.5034
     10 O1          0.6658    5.0582    0.1935 O.2       1 <0>        -0.4923
     11 N1         -0.3178    7.0465    0.1635 N.am      1 <0>        -0.5912
     12 C9          0.9033    7.6988    0.2442 C.2       1 <0>         0.0316
     13 C10         1.1507    9.0605    0.2777 C.2       1 <0>        -0.1731
     14 C11         2.5448    9.4935    0.3660 C.2       1 <0>        -0.0981
     15 C12         3.4503    8.4994    0.4037 C.2       1 <0>        -0.2078
     16 S1          2.4876    7.0083    0.3351 S.3       1 <0>         0.2704
     17 C13         4.8586    9.0222    0.4910 C.3       1 <0>        -0.0376
     18 C14         4.7505   10.5043    0.0695 C.3       1 <0>        -0.1160
     19 C15         3.2878   10.8284    0.4333 C.3       1 <0>        -0.0638
     20 C16         0.0549   10.0332    0.2259 C.2       1 <0>         0.5715
     21 O2         -0.4622   10.4229    1.2567 O.2       1 <0>        -0.5115
     22 N2         -0.3798   10.4960   -0.9629 N.am      1 <0>        -0.6496
     23 C17        -1.4883   11.3538   -1.0188 C.ar      1 <0>         0.0654
     24 C18        -1.7051   12.2750   -0.0048 C.ar      1 <0>        -0.0392
     25 C19        -2.7940   13.1237   -0.0625 C.ar      1 <0>        -0.2247
     26 C20        -3.6784   13.0494   -1.1287 C.ar      1 <0>         0.1635
     27 C21        -3.4691   12.1261   -2.1421 C.ar      1 <0>        -0.2275
     28 C22        -2.3755   11.2776   -2.0899 C.ar      1 <0>         0.1461
     29 O3         -2.1683   10.3720   -3.0828 O.3       1 <0>        -0.3175
     30 C23        -3.1187   10.3501   -4.1497 C.3       1 <0>         0.0250
     31 O4         -4.7519   13.8823   -1.1800 O.3       1 <0>        -0.3138
     32 C24        -4.9064   14.8085   -0.1028 C.3       1 <0>         0.0246
     33 H2         -2.4917    3.1865    2.5083 H         1 <0>         0.0818
     34 H3         -0.9474    3.2865    3.3879 H         1 <0>         0.1081
     35 H4         -1.5438    4.6927    2.4739 H         1 <0>         0.0727
     36 H5         -1.6655    1.1633    1.3099 H         1 <0>         0.0853
     37 H6         -0.1073    1.2651    2.1658 H         1 <0>         0.1113
     38 H7          0.0866    0.0010    0.0198 H         1 <0>         0.0938
     39 H8          1.0823    1.4771    0.0151 H         1 <0>         0.0842
     40 H9         -0.1500    1.2805   -2.1128 H         1 <0>         0.1125
     41 H10        -1.6906    1.1718   -1.2271 H         1 <0>         0.0861
     42 H11         0.2392    3.5371   -1.1750 H         1 <0>         0.1456
     43 H12        -1.3116    3.4773   -2.0463 H         1 <0>         0.1257
     44 H13        -2.1986    5.2856   -0.8629 H         1 <0>         0.1654
     45 H14        -2.3028    5.2609    0.9138 H         1 <0>         0.1658
     46 H15        -1.1399    7.5596    0.1224 H         1 <0>         0.4276
     47 H16         5.5090    8.4786   -0.1943 H         1 <0>         0.0847
     48 H17         5.2326    8.9436    1.5118 H         1 <0>         0.0913
     49 H18         4.9207   10.6188   -1.0010 H         1 <0>         0.0805
     50 H19         5.4412   11.1239    0.6413 H         1 <0>         0.0899
     51 H20         2.8670   11.5309   -0.2861 H         1 <0>         0.0762
     52 H21         3.2309   11.2414    1.4404 H         1 <0>         0.0868
     53 H22         0.0739   10.2358   -1.7799 H         1 <0>         0.4145
     54 H23        -1.0201   12.3318    0.8283 H         1 <0>         0.1502
     55 H24        -2.9592   13.8432    0.7258 H         1 <0>         0.1373
     56 H25        -4.1585   12.0685   -2.9715 H         1 <0>         0.1431
     57 H26        -4.1079   10.1258   -3.7505 H         1 <0>         0.0590
     58 H27        -3.1369   11.3233   -4.6401 H         1 <0>         0.0623
     59 H28        -2.8363    9.5844   -4.8722 H         1 <0>         0.1028
     60 H29        -5.0044   14.2619    0.8351 H         1 <0>         0.0591
     61 H30        -4.0330   15.4589   -0.0547 H         1 <0>         0.0602
     62 H31        -5.7996   15.4112   -0.2671 H         1 <0>         0.1053
     63 N3         -1.4962    3.5260    0.0475 N.4       1 <0>        -0.3733
     64 H32        -2.4154    3.0686    0.0546 H         1 <0>         0.4318
@<TRIPOS>BOND
     1    1    2 1
     2    1   33 1
     3    1   34 1
     4    1   35 1
     5    2    3 1
     6    2    4 1
     7    2   63 1
     8    4    5 1
     9    4   36 1
    10    4   37 1
    11    5    6 1
    12    5   38 1
    13    5   39 1
    14    6    7 1
    15    6   40 1
    16    6   41 1
    17    7   42 1
    18    7   43 1
    19    7   63 1
    20    8    9 1
    21    8   44 1
    22    8   45 1
    23    8   63 1
    24    9   10 2
    25    9   11 am
    26   11   12 1
    27   11   46 1
    28   12   16 1
    29   12   13 2
    30   13   14 1
    31   13   20 1
    32   14   19 1
    33   14   15 2
    34   15   16 1
    35   15   17 1
    36   17   18 1
    37   17   47 1
    38   17   48 1
    39   18   19 1
    40   18   49 1
    41   18   50 1
    42   19   51 1
    43   19   52 1
    44   20   21 2
    45   20   22 am
    46   22   23 1
    47   22   53 1
    48   23   28 ar
    49   23   24 ar
    50   24   25 ar
    51   24   54 1
    52   25   26 ar
    53   25   55 1
    54   26   27 ar
    55   26   31 1
    56   27   28 ar
    57   27   56 1
    58   28   29 1
    59   29   30 1
    60   30   57 1
    61   30   58 1
    62   30   59 1
    63   31   32 1
    64   32   60 1
    65   32   61 1
    66   32   62 1
    67   63   64 1
@<TRIPOS>MOLECULE
ZINC36601955
   52    54     0     0     0
SMALL
USER_CHARGES

@<TRIPOS>ATOM
      1 C1         -2.6238   -4.2543   -0.3708 C.3       1 <0>         0.0334
      2 O1         -2.2746   -3.0543    0.3222 O.3       1 <0>        -0.3482
      3 C2         -1.6221   -3.1913    1.4872 C.2       1 <0>         0.4469
      4 O2         -1.3562   -4.2935    1.9047 O.2       1 <0>        -0.4897
      5 C3         -1.2211   -1.9704    2.2744 C.3       1 <0>         0.1816
      6 H1         -0.5565   -1.3515    1.6715 H         1 <0>         0.1359
      7 C4         -2.4707   -1.1680    2.6427 C.3       1 <0>        -0.1098
      8 C5         -2.0562    0.1333    3.3325 C.3       1 <0>        -0.0880
      9 S1         -3.5377    1.0846    3.7692 S.3       1 <0>        -0.2470
     10 C6         -2.8821    2.5762    4.5667 C.3       1 <0>        -0.1218
     11 N1         -0.5281   -2.3836    3.4971 N.am      1 <0>        -0.7227
     12 C7          0.7947   -2.6404    3.4680 C.2       1 <0>         0.7243
     13 O3          1.3940   -2.6240    2.4103 O.2       1 <0>        -0.5512
     14 N2          1.4531   -2.9154    4.6114 N.am      1 <0>        -0.6194
     15 C8          2.9132   -3.0905    4.6162 C.3       1 <0>         0.1171
     16 C9          3.5494   -1.9766    5.4576 C.3       1 <0>        -0.0802
     17 C10         2.7655   -1.8249    6.7346 C.2       1 <0>         0.0824
     18 C11         1.5139   -2.2922    6.9318 C.2       1 <0>         0.0079
     19 N3          1.1414   -1.9710    8.1726 N.pl3     1 <0>        -0.4572
     20 C12         2.1152   -1.3234    8.7577 C.cat     1 <0>         0.3091
     21 N4          3.1478   -1.2137    7.8904 N.pl3     1 <0>        -0.5020
     22 H2          3.9994   -0.7812    8.0596 H         1 <0>         0.4682
     23 C13         0.7278   -3.0418    5.8884 C.3       1 <0>         0.2617
     24 H3         -0.2682   -2.6094    5.7936 H         1 <0>         0.1215
     25 C14         0.6229   -4.4941    6.2769 C.ar      1 <0>        -0.1186
     26 C15         1.7665   -5.2195    6.5544 C.ar      1 <0>        -0.0968
     27 C16         1.6707   -6.5514    6.9112 C.ar      1 <0>        -0.0859
     28 C17         0.4303   -7.1584    6.9907 C.ar      1 <0>        -0.0725
     29 C18        -0.7137   -6.4322    6.7130 C.ar      1 <0>        -0.0810
     30 C19        -0.6173   -5.0990    6.3613 C.ar      1 <0>        -0.0876
     31 Br1         0.2987   -8.9808    7.4782 Br        1 <0>        -0.0247
     32 H4         -3.2736   -4.8617    0.2592 H         1 <0>         0.0628
     33 H5         -3.1453   -4.0020   -1.2941 H         1 <0>         0.1085
     34 H6         -1.7188   -4.8144   -0.6061 H         1 <0>         0.0631
     35 H7         -3.0335   -0.9366    1.7384 H         1 <0>         0.1146
     36 H8         -3.0933   -1.7549    3.3180 H         1 <0>         0.0884
     37 H9         -1.4933   -0.0982    4.2368 H         1 <0>         0.0765
     38 H10        -1.4336    0.7201    2.6572 H         1 <0>         0.0903
     39 H11        -3.7084    3.2197    4.8687 H         1 <0>         0.1074
     40 H12        -2.3019    2.2934    5.4450 H         1 <0>         0.0724
     41 H13        -2.2421    3.1117    3.8654 H         1 <0>         0.0797
     42 H14        -1.0212   -2.4724    4.3277 H         1 <0>         0.3983
     43 H15         3.1625   -4.0602    5.0469 H         1 <0>         0.0923
     44 H16         3.2901   -3.0363    3.5948 H         1 <0>         0.1299
     45 H17         4.5812   -2.2393    5.6913 H         1 <0>         0.1209
     46 H18         3.5260   -1.0396    4.9011 H         1 <0>         0.1173
     47 H19         2.0980   -0.9394    9.7669 H         1 <0>         0.2718
     48 H20         2.7349   -4.7456    6.4919 H         1 <0>         0.1312
     49 H21         2.5643   -7.1181    7.1276 H         1 <0>         0.1412
     50 H22        -1.6824   -6.9057    6.7749 H         1 <0>         0.1439
     51 H23        -1.5107   -4.5307    6.1485 H         1 <0>         0.1367
     52 H24         0.2852   -2.1840    8.5758 H         1 <0>         0.4668
@<TRIPOS>BOND
     1    1    2 1
     2    1   32 1
     3    1   33 1
     4    1   34 1
     5    2    3 1
     6    3    4 2
     7    3    5 1
     8    5    6 1
     9    5    7 1
    10    5   11 1
    11    7    8 1
    12    7   35 1
    13    7   36 1
    14    8    9 1
    15    8   37 1
    16    8   38 1
    17    9   10 1
    18   10   39 1
    19   10   40 1
    20   10   41 1
    21   11   12 am
    22   11   42 1
    23   12   13 2
    24   12   14 am
    25   14   23 1
    26   14   15 1
    27   15   16 1
    28   15   43 1
    29   15   44 1
    30   16   17 1
    31   16   45 1
    32   16   46 1
    33   17   21 1
    34   17   18 2
    35   18   19 1
    36   18   23 1
    37   19   20 2
    38   19   52 1
    39   20   21 1
    40   20   47 1
    41   21   22 1
    42   23   24 1
    43   23   25 1
    44   25   30 ar
    45   25   26 ar
    46   26   27 ar
    47   26   48 1
    48   27   28 ar
    49   27   49 1
    50   28   29 ar
    51   28   31 1
    52   29   30 ar
    53   29   50 1
    54   30   51 1
@<TRIPOS>MOLECULE
ZINC39686367
   66    69     0     0     0
SMALL
USER_CHARGES

@<TRIPOS>ATOM
      1 C1          0.2515    0.8182    0.8077 C.3       1 <0>        -0.1685
      2 C2         -0.8969    0.3073   -0.0647 C.3       1 <0>         0.1494
      3 H1         -1.5022    1.1501   -0.3986 H         1 <0>         0.0912
      4 C3         -1.7659   -0.6545    0.7480 C.3       1 <0>        -0.0881
      5 C4         -2.9642   -1.0621   -0.0699 C.ar      1 <0>        -0.1061
      6 C5         -4.1587   -0.3815    0.0670 C.ar      1 <0>        -0.0723
      7 C6         -5.2585   -0.7553   -0.6827 C.ar      1 <0>        -0.1466
      8 C7         -5.1659   -1.8105   -1.5716 C.ar      1 <0>        -0.0886
      9 C8         -3.9739   -2.4938   -1.7126 C.ar      1 <0>        -0.2210
     10 C9         -2.8672   -2.1173   -0.9651 C.ar      1 <0>         0.1276
     11 O1         -1.6916   -2.7844   -1.1060 O.3       1 <0>        -0.3167
     12 C10        -1.6649   -3.8602   -2.0463 C.3       1 <0>         0.0225
     13 N1         -0.3508   -0.3936   -1.2295 N.am      1 <0>        -0.7110
     14 C11         0.0038    0.3010   -2.3288 C.2       1 <0>         0.5193
     15 O2         -0.1292    1.5062   -2.3537 O.2       1 <0>        -0.5299
     16 C12         0.5656   -0.4200   -3.5270 C.3       1 <0>        -0.1127
     17 H2          0.8461   -1.4386   -3.2589 H         1 <0>         0.1069
     18 C13         1.7850    0.3431   -4.0910 C.3       1 <0>         0.1188
     19 N2          1.6727    0.1939   -5.5611 N.am      1 <0>        -0.6176
     20 C14         0.2213    0.3219   -5.8349 C.3       1 <0>         0.0916
     21 C15        -0.4587   -0.4309   -4.6741 C.3       1 <0>        -0.0678
     22 C16        -1.7334    0.2930   -4.2513 C.3       1 <0>        -0.1481
     23 C17        -2.7581    0.2182   -5.3868 C.3       1 <0>        -0.0092
     24 N3         -3.0487   -1.1874   -5.6943 N.4       1 <0>        -0.5065
     25 C18        -1.8373   -1.8525   -6.1890 C.3       1 <0>        -0.0125
     26 C19        -0.7737   -1.8653   -5.0875 C.3       1 <0>        -0.1413
     27 C20         2.6658   -0.0122   -6.4487 C.2       1 <0>         0.5845
     28 O3          3.7968   -0.2244   -6.0570 O.2       1 <0>        -0.5054
     29 C21         2.3796    0.0197   -7.8983 C.ar      1 <0>        -0.1187
     30 C22         1.2392    0.6706   -8.3733 C.ar      1 <0>        -0.0932
     31 C23         0.9769    0.6974   -9.7267 C.ar      1 <0>        -0.1063
     32 C24         1.8416    0.0801  -10.6152 C.ar      1 <0>        -0.0079
     33 C25         2.9753   -0.5677  -10.1504 C.ar      1 <0>        -0.0368
     34 C26         3.2513   -0.5956   -8.7982 C.ar      1 <0>        -0.0376
     35 Cl1         4.0537   -1.3388  -11.2711 Cl        1 <0>        -0.0235
     36 Cl2         1.5038    0.1172  -12.3176 Cl        1 <0>        -0.0265
     37 H3          0.8568   -0.0245    1.1416 H         1 <0>         0.0609
     38 H4          0.8706    1.5035    0.2287 H         1 <0>         0.0647
     39 H5         -0.1548    1.3397    1.6743 H         1 <0>         0.0716
     40 H6         -1.1844   -1.5394    1.0065 H         1 <0>         0.0860
     41 H7         -2.0998   -0.1600    1.6602 H         1 <0>         0.0947
     42 H8         -4.2335    0.4430    0.7606 H         1 <0>         0.1339
     43 H9         -6.1915   -0.2225   -0.5736 H         1 <0>         0.1281
     44 H10        -6.0266   -2.1008   -2.1559 H         1 <0>         0.1252
     45 H11        -3.9021   -3.3179   -2.4069 H         1 <0>         0.1247
     46 H12        -0.6702   -4.3057   -2.0604 H         1 <0>         0.1071
     47 H13        -2.3966   -4.6143   -1.7565 H         1 <0>         0.0644
     48 H14        -1.9074   -3.4812   -3.0390 H         1 <0>         0.0438
     49 H15        -0.2444   -1.3575   -1.2096 H         1 <0>         0.4065
     50 H16         1.7375    1.3955   -3.8111 H         1 <0>         0.0977
     51 H17         2.7122   -0.1046   -3.7333 H         1 <0>         0.0994
     52 H18        -0.0748    1.3709   -5.8345 H         1 <0>         0.0937
     53 H19        -0.0287   -0.1445   -6.7878 H         1 <0>         0.0931
     54 H20        -2.1429   -0.1818   -3.3598 H         1 <0>         0.0957
     55 H21        -1.5046    1.3368   -4.0359 H         1 <0>         0.1364
     56 H22        -3.6760    0.7203   -5.0811 H         1 <0>         0.1400
     57 H23        -2.3544    0.7078   -6.2730 H         1 <0>         0.1332
     58 H24        -3.3696   -1.6537   -4.8590 H         1 <0>         0.4262
     59 H25        -2.0764   -2.8768   -6.4748 H         1 <0>         0.1405
     60 H26        -1.4555   -1.3136   -7.0561 H         1 <0>         0.1338
     61 H27         0.1317   -2.3434   -5.4614 H         1 <0>         0.1201
     62 H28        -1.1485   -2.4182   -4.2261 H         1 <0>         0.0958
     63 H29         0.5636    1.1518   -7.6817 H         1 <0>         0.1476
     64 H30         0.0950    1.2006  -10.0947 H         1 <0>         0.1514
     65 H31         4.1373   -1.0966   -8.4369 H         1 <0>         0.1582
     66 H32        -3.7684   -1.2340   -6.4000 H         1 <0>         0.4340
@<TRIPOS>BOND
     1    1    2 1
     2    1   37 1
     3    1   38 1
     4    1   39 1
     5    2    3 1
     6    2    4 1
     7    2   13 1
     8    4    5 1
     9    4   40 1
    10    4   41 1
    11    5   10 ar
    12    5    6 ar
    13    6    7 ar
    14    6   42 1
    15    7    8 ar
    16    7   43 1
    17    8    9 ar
    18    8   44 1
    19    9   10 ar
    20    9   45 1
    21   10   11 1
    22   11   12 1
    23   12   46 1
    24   12   47 1
    25   12   48 1
    26   13   14 am
    27   13   49 1
    28   14   15 2
    29   14   16 1
    30   16   17 1
    31   16   21 1
    32   16   18 1
    33   18   19 1
    34   18   50 1
    35   18   51 1
    36   19   20 1
    37   19   27 am
    38   20   21 1
    39   20   52 1
    40   20   53 1
    41   21   26 1
    42   21   22 1
    43   22   23 1
    44   22   54 1
    45   22   55 1
    46   23   24 1
    47   23   56 1
    48   23   57 1
    49   24   25 1
    50   24   58 1
    51   24   66 1
    52   25   26 1
    53   25   59 1
    54   25   60 1
    55   26   61 1
    56   26   62 1
    57   27   28 2
    58   27   29 1
    59   29   34 ar
    60   29   30 ar
    61   30   31 ar
    62   30   63 1
    63   31   32 ar
    64   31   64 1
    65   32   33 ar
    66   32   36 1
    67   33   34 ar
    68   33   35 1
    69   34   65 1
@<TRIPOS>MOLECULE
ZINC58161401
   64    67     0     0     0
SMALL
USER_CHARGES

@<TRIPOS>ATOM
      1 C1          0.1858    1.7072   -0.0277 C.3       1 <0>        -0.1611
      2 C2          0.0193    0.1897    0.0747 C.3       1 <0>         0.1927
      3 H1          0.4309   -0.2820   -0.8176 H         1 <0>         0.1021
      4 C3         -1.4447   -0.1482    0.1917 C.ar      1 <0>        -0.0596
      5 C4         -2.0153   -0.3275    1.4369 C.ar      1 <0>        -0.1471
      6 C5         -3.3602   -0.6375    1.5450 C.ar      1 <0>         0.1236
      7 C6         -4.1364   -0.7690    0.4057 C.ar      1 <0>        -0.1458
      8 C7         -3.5701   -0.5911   -0.8412 C.ar      1 <0>        -0.0825
      9 C8         -2.2223   -0.2739   -0.9518 C.ar      1 <0>         0.1440
     10 N1         -1.6482   -0.0872   -2.2130 N.pl3     1 <0>        -0.6739
     11 C9         -1.0637   -1.2165   -2.9527 C.3       1 <0>         0.1152
     12 C10        -1.6402   -1.2177   -4.3723 C.3       1 <0>        -0.0222
     13 N2         -1.4151    0.0943   -4.9921 N.4       1 <0>        -0.3830
     14 C11        -2.1625    1.1267   -4.2630 C.3       1 <0>        -0.0228
     15 C12        -1.6169    1.2430   -2.8404 C.3       1 <0>         0.1134
     16 C13        -1.8686    0.0583   -6.3889 C.3       1 <0>        -0.0466
     17 F1         -3.9162   -0.8124    2.7638 F         1 <0>        -0.1274
     18 N3          0.7298   -0.3008    1.2582 N.am      1 <0>        -0.7304
     19 C14         2.0464   -0.5799    1.1863 C.2       1 <0>         0.5724
     20 O1          2.6444   -0.4246    0.1391 O.2       1 <0>        -0.5382
     21 C15         2.7622   -1.0740    2.3787 C.ar      1 <0>        -0.1648
     22 C16         2.0750   -1.2585    3.5815 C.ar      1 <0>        -0.0620
     23 C17         2.7455   -1.7200    4.6917 C.ar      1 <0>        -0.1298
     24 C18         4.1060   -2.0027    4.6172 C.ar      1 <0>         0.1858
     25 C19         4.7932   -1.8196    3.4211 C.ar      1 <0>        -0.1545
     26 C20         4.1274   -1.3639    2.3058 C.ar      1 <0>        -0.0319
     27 N4          4.7817   -2.4697    5.7429 N.am      1 <0>        -0.6721
     28 C21         4.1473   -3.2627    6.6290 C.2       1 <0>         0.5643
     29 O2          3.0180   -3.6490    6.3990 O.2       1 <0>        -0.5101
     30 C22         4.8248   -3.6625    7.8803 C.ar      1 <0>        -0.1453
     31 C23         6.1195   -3.2159    8.1501 C.ar      1 <0>        -0.0850
     32 C24         6.7461   -3.5928    9.3198 C.ar      1 <0>        -0.1255
     33 C25         6.0943   -4.4120   10.2245 C.ar      1 <0>        -0.0851
     34 C26         4.8111   -4.8586    9.9631 C.ar      1 <0>        -0.1255
     35 C27         4.1705   -4.4837    8.8002 C.ar      1 <0>        -0.0547
     36 H2          1.2447    1.9516   -0.1124 H         1 <0>         0.0713
     37 H3         -0.3428    2.0721   -0.9083 H         1 <0>         0.0646
     38 H4         -0.2258    2.1789    0.8646 H         1 <0>         0.0635
     39 H5         -1.4117   -0.2261    2.3267 H         1 <0>         0.1377
     40 H6         -5.1853   -1.0112    0.4924 H         1 <0>         0.1445
     41 H7         -4.1756   -0.6944   -1.7295 H         1 <0>         0.1344
     42 H8          0.0195   -1.1038   -2.9973 H         1 <0>         0.0826
     43 H9         -1.3173   -2.1518   -2.4536 H         1 <0>         0.1172
     44 H10        -1.1470   -1.9887   -4.9643 H         1 <0>         0.1375
     45 H11        -2.7103   -1.4208   -4.3299 H         1 <0>         0.1305
     46 H12        -2.0542    2.0832   -4.7744 H         1 <0>         0.1378
     47 H13        -3.2168    0.8527   -4.2239 H         1 <0>         0.1304
     48 H14        -2.2361    1.9330   -2.2671 H         1 <0>         0.1181
     49 H15        -0.5905    1.6083   -2.8735 H         1 <0>         0.0826
     50 H16        -2.9316   -0.1812   -6.4196 H         1 <0>         0.1207
     51 H17        -1.7020    1.0318   -6.8501 H         1 <0>         0.1241
     52 H18        -1.3089   -0.7022   -6.9332 H         1 <0>         0.1241
     53 H19         0.2527   -0.4246    2.0937 H         1 <0>         0.4006
     54 H20         1.0192   -1.0390    3.6401 H         1 <0>         0.1256
     55 H21         2.2151   -1.8624    5.6217 H         1 <0>         0.1433
     56 H22         5.8493   -2.0392    3.3667 H         1 <0>         0.1371
     57 H23         4.6604   -1.2263    1.3766 H         1 <0>         0.1417
     58 H24         5.7087   -2.2240    5.8887 H         1 <0>         0.4151
     59 H25         6.6297   -2.5770    7.4444 H         1 <0>         0.1256
     60 H26         7.7478   -3.2480    9.5298 H         1 <0>         0.1331
     61 H27         6.5894   -4.7045   11.1387 H         1 <0>         0.1321
     62 H28         4.3081   -5.4984   10.6730 H         1 <0>         0.1344
     63 H29         3.1669   -4.8287    8.5997 H         1 <0>         0.1380
     64 H30        -0.4303    0.3125   -4.9664 H         1 <0>         0.4251
@<TRIPOS>BOND
     1    1    2 1
     2    1   36 1
     3    1   37 1
     4    1   38 1
     5    2    3 1
     6    2    4 1
     7    2   18 1
     8    4    9 ar
     9    4    5 ar
    10    5    6 ar
    11    5   39 1
    12    6    7 ar
    13    6   17 1
    14    7    8 ar
    15    7   40 1
    16    8    9 ar
    17    8   41 1
    18    9   10 1
    19   10   15 1
    20   10   11 1
    21   11   12 1
    22   11   42 1
    23   11   43 1
    24   12   13 1
    25   12   44 1
    26   12   45 1
    27   13   14 1
    28   13   16 1
    29   13   64 1
    30   14   15 1
    31   14   46 1
    32   14   47 1
    33   15   48 1
    34   15   49 1
    35   16   50 1
    36   16   51 1
    37   16   52 1
    38   18   19 am
    39   18   53 1
    40   19   20 2
    41   19   21 1
    42   21   26 ar
    43   21   22 ar
    44   22   23 ar
    45   22   54 1
    46   23   24 ar
    47   23   55 1
    48   24   25 ar
    49   24   27 1
    50   25   26 ar
    51   25   56 1
    52   26   57 1
    53   27   28 am
    54   27   58 1
    55   28   29 2
    56   28   30 1
    57   30   35 ar
    58   30   31 ar
    59   31   32 ar
    60   31   59 1
    61   32   33 ar
    62   32   60 1
    63   33   34 ar
    64   33   61 1
    65   34   35 ar
    66   34   62 1
    67   35   63 1
@<TRIPOS>MOLECULE
ZINC40072858
   62    67     0     0     0
SMALL
USER_CHARGES

@<TRIPOS>ATOM
      1 C1          0.6569    1.0388    1.5435 C.ar      1 <0>        -0.1494
      2 C2          1.9027    1.6525    1.3966 C.ar      1 <0>         0.0473
      3 C3          2.9593    1.0040    0.8477 C.ar      1 <0>        -0.2051
      4 C4          2.8122   -0.3359    0.4050 C.ar      1 <0>         0.3148
      5 N1          3.6689   -1.1697   -0.1517 N.pl3     1 <0>        -0.5992
      6 C5          2.9991   -2.4467   -0.4165 C.3       1 <0>         0.0779
      7 C6          1.5752   -2.2800    0.0665 C.2       1 <0>         0.1357
      8 C7          1.4970   -0.9781    0.5622 C.ar      1 <0>        -0.1428
      9 C8          0.4429   -0.2409    1.1426 C.ar      1 <0>        -0.0110
     10 C9          0.5478   -3.2349    0.0244 C.2       1 <0>         0.2599
     11 N2         -0.6911   -2.9998    0.3674 N.2       1 <0>        -0.1739
     12 N3         -1.4852   -4.1430    0.2197 N.pl3     1 <0>        -0.5836
     13 C10        -0.5984   -5.2065   -0.2801 C.3       1 <0>         0.3691
     14 H1         -0.9342   -5.5553   -1.2567 H         1 <0>         0.1371
     15 N4          0.7176   -4.5569   -0.3954 N.pl3     1 <0>        -0.6071
     16 C11         1.9624   -5.1760   -0.8573 C.3       1 <0>         0.0751
     17 C12         1.8913   -6.6224   -1.3510 C.3       1 <0>        -0.1587
     18 C13         2.5483   -6.3045   -0.0063 C.3       1 <0>        -0.1895
     19 S1         -0.5350   -6.5852    0.8971 S.3       1 <0>        -0.1598
     20 C14         0.0668   -5.8256    2.4305 C.3       1 <0>        -0.1239
     21 C15         0.1671   -6.8765    3.5060 C.2       1 <0>         0.5239
     22 O1         -0.1374   -8.0250    3.2620 O.2       1 <0>        -0.4941
     23 N5          0.5952   -6.5402    4.7389 N.am      1 <0>        -0.6605
     24 C16         0.7916   -7.5338    5.7077 C.ar      1 <0>         0.0696
     25 C17         0.5368   -7.2596    7.0448 C.ar      1 <0>        -0.0864
     26 C18         0.7298   -8.2383    7.9992 C.ar      1 <0>        -0.1786
     27 C19         1.1789   -9.4972    7.6219 C.ar      1 <0>         0.2348
     28 C20         1.4337   -9.7713    6.2843 C.ar      1 <0>        -0.1785
     29 C21         1.2355   -8.7939    5.3296 C.ar      1 <0>        -0.0628
     30 N6          1.3750  -10.4889    8.5888 N.pl3     1 <0>        -0.6352
     31 C22         1.1396  -10.3368   10.0321 C.3       1 <0>         0.1119
     32 C23         1.5144  -11.6761   10.7011 C.3       1 <0>        -0.1334
     33 C24         2.4757  -12.3230    9.6691 C.3       1 <0>        -0.1342
     34 C25         1.8457  -11.8615    8.3287 C.3       1 <0>         0.1097
     35 H2         -0.1545    1.5937    1.9907 H         1 <0>         0.1556
     36 H3          2.0279    2.6724    1.7291 H         1 <0>         0.1606
     37 H4          3.9102    1.5060    0.7473 H         1 <0>         0.1605
     38 H5          3.0102   -2.6618   -1.4850 H         1 <0>         0.1724
     39 H6          3.4904   -3.2492    0.1336 H         1 <0>         0.1733
     40 H7         -0.5300   -0.6927    1.2677 H         1 <0>         0.1605
     41 H8         -2.4334   -4.2194    0.4094 H         1 <0>         0.4682
     42 H9          2.6629   -4.5071   -1.3573 H         1 <0>         0.1332
     43 H10         0.9183   -7.1134   -1.3321 H         1 <0>         0.1106
     44 H11         2.5449   -6.9053   -2.1761 H         1 <0>         0.1156
     45 H12         3.6342   -6.3783    0.0532 H         1 <0>         0.1097
     46 H13         2.0075   -6.5863    0.8972 H         1 <0>         0.1112
     47 H14         1.0498   -5.3877    2.2576 H         1 <0>         0.1084
     48 H15        -0.6273   -5.0470    2.7470 H         1 <0>         0.1107
     49 H16         0.7673   -5.6106    4.9558 H         1 <0>         0.4066
     50 H17         0.1879   -6.2805    7.3383 H         1 <0>         0.1241
     51 H18         0.5320   -8.0249    9.0393 H         1 <0>         0.1253
     52 H19         1.7829  -10.7502    5.9907 H         1 <0>         0.1248
     53 H20         1.4294   -9.0084    4.2890 H         1 <0>         0.1314
     54 H21         1.7657   -9.5370   10.4275 H         1 <0>         0.0621
     55 H22         0.0887  -10.1126   10.2147 H         1 <0>         0.0621
     56 H23         2.0249  -11.5043   11.6487 H         1 <0>         0.0838
     57 H24         0.6296  -12.2960   10.8453 H         1 <0>         0.0777
     58 H25         3.4884  -11.9361    9.7824 H         1 <0>         0.0766
     59 H26         2.4629  -13.4098    9.7511 H         1 <0>         0.0856
     60 H27         1.0083  -12.5051    8.0590 H         1 <0>         0.0641
     61 H28         2.5957  -11.8619    7.5376 H         1 <0>         0.0716
     62 H29         4.5961   -0.9695   -0.3545 H         1 <0>         0.4549
@<TRIPOS>BOND
     1    1    9 ar
     2    1    2 ar
     3    1   35 1
     4    2    3 ar
     5    2   36 1
     6    3    4 ar
     7    3   37 1
     8    4    8 ar
     9    4    5 2
    10    5    6 1
    11    5   62 1
    12    6    7 1
    13    6   38 1
    14    6   39 1
    15    7    8 2
    16    7   10 1
    17    8    9 ar
    18    9   40 1
    19   10   15 1
    20   10   11 2
    21   11   12 1
    22   12   13 1
    23   12   41 1
    24   13   14 1
    25   13   15 1
    26   13   19 1
    27   15   16 1
    28   16   18 1
    29   16   17 1
    30   16   42 1
    31   17   18 1
    32   17   43 1
    33   17   44 1
    34   18   45 1
    35   18   46 1
    36   19   20 1
    37   20   21 1
    38   20   47 1
    39   20   48 1
    40   21   22 2
    41   21   23 am
    42   23   24 1
    43   23   49 1
    44   24   29 ar
    45   24   25 ar
    46   25   26 ar
    47   25   50 1
    48   26   27 ar
    49   26   51 1
    50   27   28 ar
    51   27   30 1
    52   28   29 ar
    53   28   52 1
    54   29   53 1
    55   30   34 1
    56   30   31 1
    57   31   32 1
    58   31   54 1
    59   31   55 1
    60   32   33 1
    61   32   56 1
    62   32   57 1
    63   33   34 1
    64   33   58 1
    65   33   59 1
    66   34   60 1
    67   34   61 1
@<TRIPOS>MOLECULE
ZINC12451383
   61    64     0     0     0
SMALL
USER_CHARGES
methyl (2S,4R)-1-[[(1S,5R)-7,7-dimethyl-4-bicyclo[3.1.1]hept-3-enyl]methyl]-4-(phenylcarbamoylamino)pyrrolidine-2-carboxylate
@<TRIPOS>ATOM
      1 C1         -0.1455    3.9144   -0.3661 C.3       1 <0>        -0.1462
      2 C2         -1.1642    3.0576   -1.1203 C.3       1 <0>        -0.0735
      3 C3         -0.7790    1.5714   -1.2165 C.3       1 <0>        -0.1105
      4 H1         -0.3089    1.2794   -2.1555 H         1 <0>         0.0929
      5 C4         -0.0408    1.0658    0.0306 C.3       1 <0>        -0.0888
      6 C5         -0.7421    1.5618    1.2718 C.2       1 <0>        -0.0629
      7 C6         -1.8673    2.2517    1.1641 C.2       1 <0>        -0.1891
      8 C7         -2.3635    2.5295   -0.2442 C.3       1 <0>        -0.0766
      9 H2         -3.2923    3.0973   -0.2993 H         1 <0>         0.0957
     10 C8         -2.2880    1.2663   -1.1218 C.3       1 <0>        -0.1282
     11 C9         -2.6111    2.7625    2.3711 C.3       1 <0>         0.0580
     12 C10        -0.8370    4.1684    3.2683 C.3       1 <0>        -0.0250
     13 C11        -0.7618    5.5330    3.9864 C.3       1 <0>         0.1519
     14 H3         -0.2871    6.2738    3.3431 H         1 <0>         0.1353
     15 C12        -2.2290    5.9229    4.2606 C.3       1 <0>        -0.1438
     16 C13        -3.0671    4.7612    3.6850 C.3       1 <0>         0.0333
     17 H4         -3.3071    4.0399    4.4661 H         1 <0>         0.1809
     18 C14        -4.3290    5.2873    3.0511 C.2       1 <0>         0.4610
     19 O1         -4.5026    5.1677    1.8613 O.2       1 <0>        -0.4813
     20 O2         -5.2601    5.8887    3.8081 O.3       1 <0>        -0.3333
     21 C15        -6.4502    6.3709    3.1302 C.3       1 <0>         0.0333
     22 N1         -0.0248    5.4073    5.2463 N.am      1 <0>        -0.7366
     23 C16         1.3123    5.5752    5.2644 C.2       1 <0>         0.7061
     24 O3          1.9069    5.8310    4.2351 O.2       1 <0>        -0.5602
     25 N2          1.9904    5.4597    6.4234 N.am      1 <0>        -0.6758
     26 C17         3.3876    5.5378    6.4275 C.ar      1 <0>         0.1449
     27 C18         4.1250    4.7681    7.3175 C.ar      1 <0>        -0.1414
     28 C19         5.5041    4.8440    7.3157 C.ar      1 <0>        -0.0996
     29 C20         6.1501    5.6931    6.4361 C.ar      1 <0>        -0.1259
     30 C21         5.4185    6.4648    5.5522 C.ar      1 <0>        -0.1014
     31 C22         4.0394    6.3896    5.5454 C.ar      1 <0>        -0.1177
     32 C23        -1.5989    3.6727   -2.4521 C.3       1 <0>        -0.1336
     33 H5          0.6907    4.1489   -1.0248 H         1 <0>         0.0693
     34 H6         -0.6203    4.8392   -0.0383 H         1 <0>         0.0483
     35 H7          0.2189    3.3655    0.5023 H         1 <0>         0.0588
     36 H8         -0.0323   -0.0242    0.0299 H         1 <0>         0.0960
     37 H9          0.9841    1.4365    0.0205 H         1 <0>         0.0938
     38 H10        -0.3346    1.3464    2.2485 H         1 <0>         0.1228
     39 H11        -2.8167    1.3561   -2.0708 H         1 <0>         0.0943
     40 H12        -2.5191    0.3441   -0.5886 H         1 <0>         0.0728
     41 H13        -3.6827    2.7431    2.1726 H         1 <0>         0.1365
     42 H14        -2.3891    2.1288    3.2297 H         1 <0>         0.1326
     43 H15        -0.7263    3.3549    3.9852 H         1 <0>         0.1410
     44 H16        -0.0706    4.1026    2.4960 H         1 <0>         0.1519
     45 H17        -2.4743    6.8551    3.7518 H         1 <0>         0.1204
     46 H18        -2.4011    6.0191    5.3326 H         1 <0>         0.1361
     47 H19        -7.1188    6.8344    3.8556 H         1 <0>         0.1204
     48 H20        -6.1665    7.1053    2.3764 H         1 <0>         0.0765
     49 H21        -6.9585    5.5349    2.6498 H         1 <0>         0.0762
     50 H22        -0.4992    5.2033    6.0674 H         1 <0>         0.4080
     51 H23         1.5099    5.3223    7.2548 H         1 <0>         0.4101
     52 H24         3.6208    4.1081    8.0078 H         1 <0>         0.1254
     53 H25         6.0783    4.2425    8.0049 H         1 <0>         0.1300
     54 H26         7.2284    5.7534    6.4392 H         1 <0>         0.1274
     55 H27         5.9260    7.1267    4.8661 H         1 <0>         0.1284
     56 H28         3.4686    6.9923    4.8545 H         1 <0>         0.1387
     57 H29        -2.2187    2.9601   -2.9964 H         1 <0>         0.0642
     58 H30        -2.1705    4.5814   -2.2633 H         1 <0>         0.0615
     59 H31        -0.7172    3.9148   -3.0455 H         1 <0>         0.0658
     60 N3         -2.1842    4.1621    2.6869 N.4       1 <0>        -0.3861
     61 H32        -2.1982    4.7212    1.8258 H         1 <0>         0.4374
@<TRIPOS>BOND
     1    1    2 1
     2    1   33 1
     3    1   34 1
     4    1   35 1
     5    2    8 1
     6    2    3 1
     7    2   32 1
     8    3    4 1
     9    3   10 1
    10    3    5 1
    11    5    6 1
    12    5   36 1
    13    5   37 1
    14    6    7 2
    15    6   38 1
    16    7    8 1
    17    7   11 1
    18    8    9 1
    19    8   10 1
    20   10   39 1
    21   10   40 1
    22   11   41 1
    23   11   42 1
    24   11   60 1
    25   12   13 1
    26   12   43 1
    27   12   44 1
    28   12   60 1
    29   13   14 1
    30   13   15 1
    31   13   22 1
    32   15   16 1
    33   15   45 1
    34   15   46 1
    35   16   17 1
    36   16   18 1
    37   16   60 1
    38   18   19 2
    39   18   20 1
    40   20   21 1
    41   21   47 1
    42   21   48 1
    43   21   49 1
    44   22   23 am
    45   22   50 1
    46   23   24 2
    47   23   25 am
    48   25   26 1
    49   25   51 1
    50   26   31 ar
    51   26   27 ar
    52   27   28 ar
    53   27   52 1
    54   28   29 ar
    55   28   53 1
    56   29   30 ar
    57   29   54 1
    58   30   31 ar
    59   30   55 1
    60   31   56 1
    61   32   57 1
    62   32   58 1
    63   32   59 1
    64   60   61 1
@<TRIPOS>MOLECULE
ZINC39659958
   69    72     0     0     0
SMALL
USER_CHARGES

@<TRIPOS>ATOM
      1 C1         -0.1726   -0.0384    1.8672 C.3       1 <0>        -0.1222
      2 C2          0.5428   -0.1393    0.5184 C.3       1 <0>        -0.1430
      3 C3          0.8506   -1.6065    0.2126 C.3       1 <0>        -0.1184
      4 C4          2.0395   -2.0651    1.0594 C.3       1 <0>        -0.1348
      5 C5          3.1276   -0.9899    1.0371 C.3       1 <0>         0.1337
      6 C6          3.2702   -0.3790    2.4326 C.3       1 <0>        -0.1229
      7 C7          2.1046    0.5780    2.6909 C.3       1 <0>        -0.1275
      8 C8          0.8411   -0.2283    2.9972 C.3       1 <0>        -0.1292
      9 N1          4.4011   -1.5923    0.6352 N.am      1 <0>        -0.7254
     10 C9          5.3558   -0.8316    0.0639 C.2       1 <0>         0.5159
     11 O1          5.1606    0.3515   -0.1175 O.2       1 <0>        -0.5180
     12 C10         6.6659   -1.4513   -0.3494 C.3       1 <0>        -0.1175
     13 H1          6.5234   -2.5002   -0.6094 H         1 <0>         0.1166
     14 C11         7.2736   -0.6792   -1.5419 C.3       1 <0>         0.1141
     15 N2          8.2115    0.2870   -0.9233 N.am      1 <0>        -0.6176
     16 C12         8.8456   -0.4706    0.1821 C.3       1 <0>         0.1062
     17 C13         7.7022   -1.3152    0.7787 C.3       1 <0>        -0.0719
     18 C14         8.2199   -2.6903    1.1895 C.3       1 <0>        -0.1337
     19 C15         9.2047   -2.5338    2.3516 C.3       1 <0>        -0.0099
     20 N3          8.5308   -1.8845    3.4825 N.4       1 <0>        -0.5042
     21 C16         8.1184   -0.5267    3.1071 C.3       1 <0>        -0.0094
     22 C17         7.0875   -0.5984    1.9771 C.3       1 <0>        -0.1471
     23 C18         8.4375    1.5657   -1.2843 C.2       1 <0>         0.5538
     24 O2          9.2442    2.2347   -0.6739 O.2       1 <0>        -0.5295
     25 C19         7.6877    2.1643   -2.4465 C.3       1 <0>        -0.1045
     26 C20         7.9970    1.3703   -3.7194 C.3       1 <0>        -0.1503
     27 C21         7.2943    2.0320   -4.9077 C.3       1 <0>         0.0612
     28 O3          7.7243    3.3904   -5.0175 O.3       1 <0>        -0.3776
     29 C22         7.4191    4.1931   -3.8753 C.3       1 <0>         0.0590
     30 C23         8.1268    3.6182   -2.6455 C.3       1 <0>        -0.1363
     31 H2         -0.6392    0.9424    1.9586 H         1 <0>         0.0630
     32 H3         -0.9376   -0.8122    1.9315 H         1 <0>         0.0649
     33 H4         -0.0975    0.2683   -0.2639 H         1 <0>         0.0640
     34 H5          1.4735    0.4267    0.5576 H         1 <0>         0.0816
     35 H6         -0.0207   -2.2174    0.4485 H         1 <0>         0.0699
     36 H7          1.0944   -1.7140   -0.8444 H         1 <0>         0.0620
     37 H8          1.7123   -2.2294    2.0861 H         1 <0>         0.0842
     38 H9          2.4385   -2.9942    0.6524 H         1 <0>         0.0668
     39 H10         2.8538   -0.2107    0.3257 H         1 <0>         0.1038
     40 H11         3.2610   -1.1729    3.1795 H         1 <0>         0.0632
     41 H12         4.2107    0.1683    2.4954 H         1 <0>         0.0589
     42 H13         2.3418    1.2184    3.5404 H         1 <0>         0.0631
     43 H14         1.9374    1.1937    1.8072 H         1 <0>         0.0776
     44 H15         0.4080    0.1179    3.9357 H         1 <0>         0.0618
     45 H16         1.0961   -1.2846    3.0828 H         1 <0>         0.0702
     46 H17         4.5572   -2.5386    0.7804 H         1 <0>         0.3969
     47 H18         7.8105   -1.3607   -2.2018 H         1 <0>         0.0899
     48 H19         6.4932   -0.1528   -2.0913 H         1 <0>         0.0993
     49 H20         9.6339   -1.1174   -0.2031 H         1 <0>         0.0837
     50 H21         9.2451    0.2126    0.9315 H         1 <0>         0.0871
     51 H22         7.3837   -3.3152    1.5029 H         1 <0>         0.0971
     52 H23         8.7260   -3.1560    0.3439 H         1 <0>         0.1217
     53 H24         9.5636   -3.5162    2.6581 H         1 <0>         0.1402
     54 H25        10.0488   -1.9224    2.0323 H         1 <0>         0.1329
     55 H26         7.7173   -2.4223    3.7413 H         1 <0>         0.4273
     56 H27         7.6765   -0.0297    3.9707 H         1 <0>         0.1380
     57 H28         8.9883    0.0368    2.7699 H         1 <0>         0.1342
     58 H29         6.7952    0.4108    1.6867 H         1 <0>         0.1228
     59 H30         6.2103   -1.1477    2.3190 H         1 <0>         0.0963
     60 H31         6.6169    2.1310   -2.2457 H         1 <0>         0.1047
     61 H32         9.0734    1.3622   -3.8912 H         1 <0>         0.0787
     62 H33         7.6375    0.3474   -3.6071 H         1 <0>         0.0775
     63 H34         7.5455    1.4961   -5.8230 H         1 <0>         0.1004
     64 H35         6.2156    2.0035   -4.7540 H         1 <0>         0.0540
     65 H36         7.7602    5.2140   -4.0468 H         1 <0>         0.1022
     66 H37         6.3420    4.1928   -3.7080 H         1 <0>         0.0536
     67 H38         7.8601    4.2030   -1.7652 H         1 <0>         0.0811
     68 H39         9.2058    3.6555   -2.7956 H         1 <0>         0.0813
     69 H40         9.1633   -1.8376    4.2673 H         1 <0>         0.4344
@<TRIPOS>BOND
     1    1    8 1
     2    1    2 1
     3    1   31 1
     4    1   32 1
     5    2    3 1
     6    2   33 1
     7    2   34 1
     8    3    4 1
     9    3   35 1
    10    3   36 1
    11    4    5 1
    12    4   37 1
    13    4   38 1
    14    5    6 1
    15    5    9 1
    16    5   39 1
    17    6    7 1
    18    6   40 1
    19    6   41 1
    20    7    8 1
    21    7   42 1
    22    7   43 1
    23    8   44 1
    24    8   45 1
    25    9   10 am
    26    9   46 1
    27   10   11 2
    28   10   12 1
    29   12   13 1
    30   12   17 1
    31   12   14 1
    32   14   15 1
    33   14   47 1
    34   14   48 1
    35   15   16 1
    36   15   23 am
    37   16   17 1
    38   16   49 1
    39   16   50 1
    40   17   22 1
    41   17   18 1
    42   18   19 1
    43   18   51 1
    44   18   52 1
    45   19   20 1
    46   19   53 1
    47   19   54 1
    48   20   21 1
    49   20   55 1
    50   20   69 1
    51   21   22 1
    52   21   56 1
    53   21   57 1
    54   22   58 1
    55   22   59 1
    56   23   24 2
    57   23   25 1
    58   25   30 1
    59   25   26 1
    60   25   60 1
    61   26   27 1
    62   26   61 1
    63   26   62 1
    64   27   28 1
    65   27   63 1
    66   27   64 1
    67   28   29 1
    68   29   30 1
    69   29   65 1
    70   29   66 1
    71   30   67 1
    72   30   68 1
@<TRIPOS>MOLECULE
ZINC54940248
   51    54     0     0     0
SMALL
USER_CHARGES

@<TRIPOS>ATOM
      1 C1         -0.0187    1.5258    0.0104 C.3       1 <0>        -0.1789
      2 C2          0.0021   -0.0041    0.0020 C.3       1 <0>         0.0835
      3 H1          0.5293   -0.3651    0.8851 H         1 <0>         0.1447
      4 C3          0.7074   -0.4901   -1.2379 C.ar      1 <0>        -0.1401
      5 C4          0.0376   -0.5216   -2.4467 C.ar      1 <0>        -0.1236
      6 C5          0.6846   -0.9674   -3.5840 C.ar      1 <0>        -0.1035
      7 C6          2.0016   -1.3812   -3.5126 C.ar      1 <0>        -0.0921
      8 C7          2.6718   -1.3488   -2.3040 C.ar      1 <0>        -0.1040
      9 C8          2.0261   -0.8990   -1.1675 C.ar      1 <0>        -0.0893
     10 N1         -1.3761   -0.5125    0.0124 N.4       1 <0>        -0.3934
     11 C9         -1.3742   -1.9957    0.0924 C.3       1 <0>         0.0001
     12 C10        -2.7817   -2.3224    0.6517 C.3       1 <0>        -0.1608
     13 C11        -3.0245   -1.1805    1.6652 C.3       1 <0>         0.1308
     14 H2         -2.7734   -1.5098    2.6735 H         1 <0>         0.1382
     15 C12        -2.0833   -0.0443    1.2241 C.3       1 <0>        -0.0170
     16 N2         -4.4201   -0.7384    1.6083 N.am      1 <0>        -0.7042
     17 C13        -5.3567   -1.3671    2.3458 C.2       1 <0>         0.5285
     18 O1         -5.0441   -2.2994    3.0570 O.2       1 <0>        -0.4900
     19 C14        -6.7794   -0.9164    2.2878 C.2       1 <0>         0.5047
     20 O2         -7.0920    0.0160    1.5767 O.2       1 <0>        -0.4415
     21 N3         -7.7161   -1.5451    3.0253 N.am      1 <0>        -0.5890
     22 C15        -9.0341   -1.1275    2.9716 C.2       1 <0>         0.3469
     23 N4         -9.5614   -0.1537    2.2662 N.2       1 <0>        -0.4970
     24 C16       -10.8770    0.1458    2.3121 C.ar      1 <0>         0.0905
     25 C17       -11.5667    1.1611    1.6092 C.ar      1 <0>        -0.0594
     26 C18       -12.9163    1.3323    1.7721 C.ar      1 <0>        -0.1053
     27 C19       -13.6522    0.5232    2.6262 C.ar      1 <0>        -0.0891
     28 C20       -13.0105   -0.4796    3.3294 C.ar      1 <0>        -0.0635
     29 C21       -11.6587   -0.6590    3.1724 C.ar      1 <0>        -0.1437
     30 S1        -10.4535   -1.7815    3.8387 S.3       1 <0>         0.0363
     31 H3          1.0039    1.9031    0.0027 H         1 <0>         0.1077
     32 H4         -0.5459    1.8868   -0.8726 H         1 <0>         0.0820
     33 H5         -0.5289    1.8773    0.9072 H         1 <0>         0.0844
     34 H6         -0.9914   -0.1983   -2.5024 H         1 <0>         0.1170
     35 H7          0.1611   -0.9927   -4.5283 H         1 <0>         0.1353
     36 H8          2.5069   -1.7302   -4.4010 H         1 <0>         0.1360
     37 H9          3.7006   -1.6725   -2.2481 H         1 <0>         0.1373
     38 H10         2.5507   -0.8702   -0.2240 H         1 <0>         0.1336
     39 H11        -1.2420   -2.4342   -0.8967 H         1 <0>         0.1395
     40 H12        -0.5988   -2.3432    0.7752 H         1 <0>         0.1400
     41 H13        -3.5276   -2.2981   -0.1427 H         1 <0>         0.1049
     42 H14        -2.7823   -3.2900    1.1535 H         1 <0>         0.1283
     43 H15        -1.3639    0.1699    2.0145 H         1 <0>         0.1511
     44 H16        -2.6629    0.8496    0.9936 H         1 <0>         0.1412
     45 H17        -4.6699    0.0069    1.0399 H         1 <0>         0.4198
     46 H18        -7.4662   -2.2903    3.5937 H         1 <0>         0.4423
     47 H19       -11.0235    1.8087    0.9369 H         1 <0>         0.1352
     48 H20       -13.4189    2.1151    1.2235 H         1 <0>         0.1390
     49 H21       -14.7152    0.6754    2.7407 H         1 <0>         0.1441
     50 H22       -13.5693   -1.1174    3.9982 H         1 <0>         0.1383
     51 H23        -1.8658   -0.2084   -0.8156 H         1 <0>         0.4241
@<TRIPOS>BOND
     1    1    2 1
     2    1   31 1
     3    1   32 1
     4    1   33 1
     5    2    3 1
     6    2    4 1
     7    2   10 1
     8    4    9 ar
     9    4    5 ar
    10    5    6 ar
    11    5   34 1
    12    6    7 ar
    13    6   35 1
    14    7    8 ar
    15    7   36 1
    16    8    9 ar
    17    8   37 1
    18    9   38 1
    19   10   15 1
    20   10   11 1
    21   10   51 1
    22   11   12 1
    23   11   39 1
    24   11   40 1
    25   12   13 1
    26   12   41 1
    27   12   42 1
    28   13   14 1
    29   13   15 1
    30   13   16 1
    31   15   43 1
    32   15   44 1
    33   16   17 am
    34   16   45 1
    35   17   18 2
    36   17   19 1
    37   19   20 2
    38   19   21 am
    39   21   22 1
    40   21   46 1
    41   22   30 1
    42   22   23 2
    43   23   24 1
    44   24   29 ar
    45   24   25 ar
    46   25   26 ar
    47   25   47 1
    48   26   27 ar
    49   26   48 1
    50   27   28 ar
    51   27   49 1
    52   28   29 ar
    53   28   50 1
    54   29   30 1
@<TRIPOS>MOLECULE
ZINC64652829
   55    58     0     0     0
SMALL
USER_CHARGES

@<TRIPOS>ATOM
      1 C1         -7.5532    1.2773    5.2714 C.3       1 <0>        -0.1468
      2 C2         -6.9064   -0.1024    5.4090 C.3       1 <0>        -0.0698
      3 C3         -7.9328   -1.0941    5.9603 C.3       1 <0>        -0.1496
      4 C4         -6.4303   -0.5710    4.0582 C.2       1 <0>         0.2471
      5 N1         -7.3235   -0.7221    3.0251 N.pl3     1 <0>        -0.7230
      6 C5         -6.8262   -0.5117    1.6593 C.3       1 <0>         0.4249
      7 H1         -6.7271    0.5442    1.4073 H         1 <0>         0.1301
      8 N2         -5.5428   -1.2578    1.5438 N.am      1 <0>        -0.6433
      9 C6         -5.3410   -1.9682    0.2884 C.3       1 <0>         0.1525
     10 H2         -4.4694   -1.5447   -0.2107 H         1 <0>         0.1012
     11 C7         -6.5391   -1.9133   -0.6893 C.3       1 <0>        -0.0348
     12 S1         -7.9063   -1.4294    0.4809 S.3       1 <0>        -0.2857
     13 C8         -5.0478   -3.4360    0.6053 C.3       1 <0>        -0.1600
     14 C9         -4.6805   -4.1603   -0.6642 C.2       1 <0>         0.5266
     15 O1         -4.5456   -3.5412   -1.6983 O.2       1 <0>        -0.5280
     16 N3         -4.5020   -5.4961   -0.6503 N.am      1 <0>        -0.7351
     17 C10        -4.1450   -6.2002   -1.8844 C.3       1 <0>         0.1257
     18 C11        -4.0030   -7.6960   -1.5954 C.3       1 <0>        -0.1057
     19 C12        -3.6357   -8.4203   -2.8649 C.2       1 <0>         0.0702
     20 C13        -2.3926   -8.7557   -3.2792 C.ar      1 <0>        -0.1668
     21 C14        -1.0614   -8.5534   -2.6949 C.ar      1 <0>        -0.0123
     22 C15         0.0234   -9.0111   -3.3603 C.ar      1 <0>        -0.1503
     23 C16        -0.0914   -9.6718   -4.5911 C.ar      1 <0>         0.0558
     24 C17        -1.2799   -9.8951   -5.1908 C.ar      1 <0>        -0.2104
     25 C18        -2.4869   -9.4568   -4.5796 C.ar      1 <0>         0.3281
     26 N4         -3.7396   -9.5511   -4.9546 N.pl3     1 <0>        -0.5853
     27 C19        -4.5830   -8.9250   -3.9303 C.3       1 <0>         0.0608
     28 C20        -4.6690   -1.2815    2.5892 C.2       1 <0>         0.5878
     29 O2         -3.5247   -1.6693    2.4371 O.2       1 <0>        -0.5330
     30 C21        -5.1233   -0.8393    3.8549 C.2       1 <0>        -0.3284
     31 H3         -7.8975    1.6163    6.2485 H         1 <0>         0.0703
     32 H4         -6.8220    1.9839    4.8787 H         1 <0>         0.0618
     33 H5         -8.4009    1.2148    4.5890 H         1 <0>         0.0588
     34 H6         -6.0587   -0.0398    6.0914 H         1 <0>         0.1023
     35 H7         -8.7804   -1.1566    5.2779 H         1 <0>         0.0552
     36 H8         -7.4720   -2.0770    6.0583 H         1 <0>         0.0623
     37 H9         -8.2771   -0.7552    6.9373 H         1 <0>         0.0710
     38 H10        -6.3944   -1.1461   -1.4499 H         1 <0>         0.1129
     39 H11        -6.7249   -2.8869   -1.1427 H         1 <0>         0.1219
     40 H12        -4.2193   -3.4969    1.3110 H         1 <0>         0.1190
     41 H13        -5.9330   -3.8970    1.0435 H         1 <0>         0.1023
     42 H14        -4.6099   -5.9913    0.1767 H         1 <0>         0.4079
     43 H15        -4.9258   -6.0466   -2.6293 H         1 <0>         0.0786
     44 H16        -3.1996   -5.8121   -2.2637 H         1 <0>         0.0799
     45 H17        -3.2221   -7.8496   -0.8505 H         1 <0>         0.1167
     46 H18        -4.9483   -8.0841   -1.2161 H         1 <0>         0.1192
     47 H19        -0.9498   -8.0462   -1.7480 H         1 <0>         0.1609
     48 H20         1.0039   -8.8633   -2.9322 H         1 <0>         0.1585
     49 H21         0.8080  -10.0162   -5.0798 H         1 <0>         0.1615
     50 H22        -1.3144  -10.4090   -6.1401 H         1 <0>         0.1609
     51 H23        -5.2692   -9.6580   -3.5062 H         1 <0>         0.1751
     52 H24        -5.1402   -8.0936   -4.3621 H         1 <0>         0.1741
     53 H25        -4.4193   -0.7194    4.6650 H         1 <0>         0.1521
     54 H26        -8.2491   -0.9594    3.1918 H         1 <0>         0.4180
     55 H27        -4.0562   -9.9685   -5.7710 H         1 <0>         0.4562
@<TRIPOS>BOND
     1    1    2 1
     2    1   31 1
     3    1   32 1
     4    1   33 1
     5    2    3 1
     6    2   34 1
     7    2    4 1
     8    3   35 1
     9    3   36 1
    10    3   37 1
    11    4   30 2
    12    4    5 1
    13    5    6 1
    14    5   54 1
    15    6    7 1
    16    6   12 1
    17    6    8 1
    18    8    9 1
    19    8   28 am
    20    9   10 1
    21    9   11 1
    22    9   13 1
    23   11   12 1
    24   11   38 1
    25   11   39 1
    26   13   14 1
    27   13   40 1
    28   13   41 1
    29   14   15 2
    30   14   16 am
    31   16   17 1
    32   16   42 1
    33   17   18 1
    34   17   43 1
    35   17   44 1
    36   18   19 1
    37   18   45 1
    38   18   46 1
    39   19   27 1
    40   19   20 2
    41   20   25 ar
    42   20   21 ar
    43   21   22 ar
    44   21   47 1
    45   22   23 ar
    46   22   48 1
    47   23   24 ar
    48   23   49 1
    49   24   25 ar
    50   24   50 1
    51   25   26 2
    52   26   27 1
    53   26   55 1
    54   27   51 1
    55   27   52 1
    56   28   29 2
    57   28   30 1
    58   30   53 1
@<TRIPOS>MOLECULE
ZINC66187597
   60    62     0     0     0
SMALL
USER_CHARGES

@<TRIPOS>ATOM
      1 C1         -0.0187    1.5258    0.0104 C.3       1 <0>        -0.1562
      2 C2          0.0021   -0.0041    0.0020 C.3       1 <0>        -0.1103
      3 C3         -1.4333   -0.5336    0.0129 C.3       1 <0>        -0.1430
      4 C4         -1.4126   -2.0635    0.0045 C.3       1 <0>         0.1478
      5 H1         -0.8102   -2.4233    0.8386 H         1 <0>         0.1185
      6 C5         -2.8198   -2.5857    0.1389 C.2       1 <0>         0.5173
      7 O1         -3.2930   -3.2847   -0.7319 O.2       1 <0>        -0.5330
      8 N1         -3.5524   -2.2760    1.2270 N.am      1 <0>        -0.6034
      9 C6         -4.9245   -2.7850    1.3715 C.3       1 <0>         0.1169
     10 C7         -4.9631   -3.7311    2.5815 C.3       1 <0>        -0.0586
     11 C8         -4.1853   -3.1133    3.6976 C.2       1 <0>        -0.1425
     12 C9         -3.2901   -2.0909    3.6272 C.2       1 <0>        -0.1493
     13 C10        -2.6883   -1.7027    4.8231 C.2       1 <0>        -0.1492
     14 C11        -3.0086   -2.3317    5.9770 C.2       1 <0>        -0.1681
     15 S1         -4.2062   -3.5346    5.4202 S.3       1 <0>         0.0582
     16 C12        -2.9893   -1.4301    2.2880 C.3       1 <0>         0.1637
     17 N2         -0.8342   -2.5371   -1.2555 N.am      1 <0>        -0.7196
     18 C13         0.5029   -2.6470   -1.3840 C.2       1 <0>         0.7144
     19 O2          1.2292   -2.3531   -0.4542 O.2       1 <0>        -0.5732
     20 N3          1.0349   -3.0827   -2.5431 N.am      1 <0>        -0.7427
     21 C14         2.4883   -3.2021   -2.6828 C.3       1 <0>         0.1523
     22 H2          2.9746   -2.4023   -2.1244 H         1 <0>         0.1110
     23 C15         2.9449   -4.5580   -2.1364 C.3       1 <0>        -0.1520
     24 C16         4.4530   -4.7051   -2.3583 C.3       1 <0>        -0.1417
     25 C17         4.7616   -4.5467   -3.8487 C.3       1 <0>        -0.0146
     26 N4          4.3255   -3.2213   -4.3042 N.4       1 <0>        -0.3789
     27 C18         2.8698   -3.0984   -4.1610 C.3       1 <0>        -0.0181
     28 C19         4.6938   -3.0444   -5.7152 C.3       1 <0>        -0.0099
     29 C20         6.2181   -3.0374   -5.8474 C.3       1 <0>        -0.1894
     30 H3          1.0039    1.9031    0.0027 H         1 <0>         0.0548
     31 H4         -0.5459    1.8868   -0.8726 H         1 <0>         0.0515
     32 H5         -0.5289    1.8773    0.9072 H         1 <0>         0.0564
     33 H6          0.5123   -0.3556   -0.8948 H         1 <0>         0.0613
     34 H7          0.5293   -0.3651    0.8851 H         1 <0>         0.0704
     35 H8         -1.9435   -0.1821    0.9097 H         1 <0>         0.0890
     36 H9         -1.9605   -0.1726   -0.8702 H         1 <0>         0.0737
     37 H10        -5.6098   -1.9530    1.5336 H         1 <0>         0.0839
     38 H11        -5.2116   -3.3281    0.4711 H         1 <0>         0.1075
     39 H12        -5.9961   -3.8815    2.8952 H         1 <0>         0.0984
     40 H13        -4.5175   -4.6885    2.3114 H         1 <0>         0.0894
     41 H14        -1.9659   -0.8999    4.8283 H         1 <0>         0.1350
     42 H15        -2.6366   -2.1534    6.9752 H         1 <0>         0.1899
     43 H16        -1.9111   -1.3405    2.1555 H         1 <0>         0.1026
     44 H17        -3.4492   -0.4424    2.2558 H         1 <0>         0.0910
     45 H18        -1.4137   -2.7716   -1.9972 H         1 <0>         0.4086
     46 H19         0.4555   -3.3172   -3.2849 H         1 <0>         0.4041
     47 H20         2.7262   -4.6136   -1.0700 H         1 <0>         0.1011
     48 H21         2.4198   -5.3572   -2.6595 H         1 <0>         0.0835
     49 H22         4.9806   -3.9364   -1.7937 H         1 <0>         0.0914
     50 H23         4.7758   -5.6905   -2.0224 H         1 <0>         0.1167
     51 H24         5.8345   -4.6511   -4.0102 H         1 <0>         0.1358
     52 H25         4.2336   -5.3160   -4.4123 H         1 <0>         0.1303
     53 H26         2.3822   -3.8980   -4.7186 H         1 <0>         0.1341
     54 H27         2.5461   -2.1340   -4.5525 H         1 <0>         0.1369
     55 H28         4.2819   -3.8642   -6.3038 H         1 <0>         0.1300
     56 H29         4.2932   -2.0984   -6.0795 H         1 <0>         0.1313
     57 H30         6.6300   -2.2176   -5.2588 H         1 <0>         0.0815
     58 H31         6.6187   -3.9834   -5.4831 H         1 <0>         0.0814
     59 H32         6.4914   -2.9061   -6.8944 H         1 <0>         0.1075
     60 H33         4.7776   -2.5104   -3.7490 H         1 <0>         0.4247
@<TRIPOS>BOND
     1    1    2 1
     2    1   30 1
     3    1   31 1
     4    1   32 1
     5    2    3 1
     6    2   33 1
     7    2   34 1
     8    3    4 1
     9    3   35 1
    10    3   36 1
    11    4    5 1
    12    4    6 1
    13    4   17 1
    14    6    7 2
    15    6    8 am
    16    8   16 1
    17    8    9 1
    18    9   10 1
    19    9   37 1
    20    9   38 1
    21   10   11 1
    22   10   39 1
    23   10   40 1
    24   11   15 1
    25   11   12 2
    26   12   13 1
    27   12   16 1
    28   13   14 2
    29   13   41 1
    30   14   15 1
    31   14   42 1
    32   16   43 1
    33   16   44 1
    34   17   18 am
    35   17   45 1
    36   18   19 2
    37   18   20 am
    38   20   21 1
    39   20   46 1
    40   21   22 1
    41   21   27 1
    42   21   23 1
    43   23   24 1
    44   23   47 1
    45   23   48 1
    46   24   25 1
    47   24   49 1
    48   24   50 1
    49   25   26 1
    50   25   51 1
    51   25   52 1
    52   26   27 1
    53   26   28 1
    54   26   60 1
    55   27   53 1
    56   27   54 1
    57   28   29 1
    58   28   55 1
    59   28   56 1
    60   29   57 1
    61   29   58 1
    62   29   59 1
@<TRIPOS>MOLECULE
ZINC02309842
   54    56     0     0     0
SMALL
USER_CHARGES
methyl 5-bromo-3-[2-(3,3-dimethyl-1-piperidyl)propanoylamino]-1H-indole-2-carboxylate
@<TRIPOS>ATOM
      1 C1          3.5409    3.4782   -1.0061 C.3       1 <0>        -0.1805
      2 C2          3.8761    1.9877   -0.9227 C.3       1 <0>         0.0146
      3 H1          4.6261    1.8267   -0.1483 H         1 <0>         0.1613
      4 C3          4.4154    1.5191   -2.2496 C.2       1 <0>         0.5029
      5 O1          3.6603    1.0757   -3.0886 O.2       1 <0>        -0.4952
      6 N1          5.7369    1.5928   -2.5038 N.am      1 <0>        -0.6142
      7 C4          6.2229    1.2554   -3.7628 C.2       1 <0>         0.1554
      8 C5          5.7671    0.1505   -4.6097 C.ar      1 <0>        -0.1141
      9 C6          4.7906   -0.8388   -4.4579 C.ar      1 <0>        -0.0047
     10 C7          4.5935   -1.7561   -5.4509 C.ar      1 <0>        -0.1186
     11 C8          5.3561   -1.7135   -6.6119 C.ar      1 <0>        -0.0465
     12 C9          6.3171   -0.7433   -6.7859 C.ar      1 <0>        -0.1231
     13 C10         6.5398    0.2000   -5.7848 C.ar      1 <0>         0.1532
     14 N2          7.4179    1.2524   -5.6711 N.pl3     1 <0>        -0.5548
     15 H2          8.0703    1.5086   -6.3416 H         1 <0>         0.4369
     16 C11         7.2320    1.8927   -4.4547 C.2       1 <0>         0.0231
     17 C12         7.9617    3.0192   -3.9963 C.2       1 <0>         0.5339
     18 O2          7.6496    3.5630   -2.9535 O.2       1 <0>        -0.4996
     19 O3          9.0021    3.4880   -4.7167 O.3       1 <0>        -0.3492
     20 C13         9.6919    4.6258   -4.1955 C.3       1 <0>         0.0347
     21 Br1         3.2726   -3.0934   -5.2443 Br        1 <0>        -0.0380
     22 C14         2.9340   -0.2122   -0.5571 C.3       1 <0>        -0.0109
     23 C15         1.6230   -0.9756   -0.3557 C.3       1 <0>        -0.1451
     24 C16         0.9735   -0.5274    0.9564 C.3       1 <0>        -0.1277
     25 C17         0.7444    0.9859    0.9126 C.3       1 <0>        -0.0797
     26 C18         2.0809    1.6925    0.6744 C.3       1 <0>         0.0001
     27 C19         0.1506    1.4515    2.2435 C.3       1 <0>        -0.1458
     28 C20        -0.2217    1.3235   -0.2247 C.3       1 <0>        -0.1677
     29 H3          4.4422    4.0401   -1.2508 H         1 <0>         0.1149
     30 H4          2.7908    3.6391   -1.7804 H         1 <0>         0.0908
     31 H5          3.1508    3.8171   -0.0464 H         1 <0>         0.1008
     32 H6          6.3492    1.8810   -1.8088 H         1 <0>         0.4271
     33 H7          4.1938   -0.8774   -3.5586 H         1 <0>         0.1338
     34 H8          5.1886   -2.4451   -7.3884 H         1 <0>         0.1467
     35 H9          6.9054   -0.7206   -7.6914 H         1 <0>         0.1442
     36 H10        10.5037    4.8988   -4.8696 H         1 <0>         0.1115
     37 H11         8.9979    5.4615   -4.1052 H         1 <0>         0.0672
     38 H12        10.1001    4.3849   -3.2139 H         1 <0>         0.0678
     39 H13         3.6132   -0.4331    0.2663 H         1 <0>         0.1320
     40 H14         3.3918   -0.5185   -1.4977 H         1 <0>         0.1269
     41 H15         1.8277   -2.0454   -0.3136 H         1 <0>         0.1146
     42 H16         0.9486   -0.7660   -1.1859 H         1 <0>         0.0920
     43 H17         1.6309   -0.7723    1.7906 H         1 <0>         0.0834
     44 H18         0.0183   -1.0368    1.0838 H         1 <0>         0.0962
     45 H19         1.9191    2.7695    0.6283 H         1 <0>         0.1336
     46 H20         2.7640    1.4626    1.4920 H         1 <0>         0.1348
     47 H21         0.8404    1.2120    3.0528 H         1 <0>         0.0684
     48 H22        -0.0122    2.5288    2.2117 H         1 <0>         0.0692
     49 H23        -0.7995    0.9453    2.4143 H         1 <0>         0.0788
     50 H24        -1.1722    0.8172   -0.0564 H         1 <0>         0.0867
     51 H25        -0.3844    2.4009   -0.2555 H         1 <0>         0.0739
     52 H26         0.2031    0.9930   -1.1726 H         1 <0>         0.0536
     53 N3          2.6419    1.2360   -0.6149 N.4       1 <0>        -0.3828
     54 H27         1.9533    1.4075   -1.3570 H         1 <0>         0.4332
@<TRIPOS>BOND
     1    1    2 1
     2    1   29 1
     3    1   30 1
     4    1   31 1
     5    2    3 1
     6    2    4 1
     7    2   53 1
     8    4    5 2
     9    4    6 am
    10    6    7 1
    11    6   32 1
    12    7   16 2
    13    7    8 1
    14    8   13 ar
    15    8    9 ar
    16    9   10 ar
    17    9   33 1
    18   10   11 ar
    19   10   21 1
    20   11   12 ar
    21   11   34 1
    22   12   13 ar
    23   12   35 1
    24   13   14 1
    25   14   15 1
    26   14   16 1
    27   16   17 1
    28   17   18 2
    29   17   19 1
    30   19   20 1
    31   20   36 1
    32   20   37 1
    33   20   38 1
    34   22   23 1
    35   22   39 1
    36   22   40 1
    37   22   53 1
    38   23   24 1
    39   23   41 1
    40   23   42 1
    41   24   25 1
    42   24   43 1
    43   24   44 1
    44   25   26 1
    45   25   27 1
    46   25   28 1
    47   26   45 1
    48   26   46 1
    49   26   53 1
    50   27   47 1
    51   27   48 1
    52   27   49 1
    53   28   50 1
    54   28   51 1
    55   28   52 1
    56   53   54 1
@<TRIPOS>MOLECULE
ZINC34681165
   57    60     0     0     0
SMALL
USER_CHARGES

@<TRIPOS>ATOM
      1 C1         -1.1407    0.6364    4.1303 C.ar      1 <0>        -0.1263
      2 C2         -0.5690   -0.5754    4.4718 C.ar      1 <0>        -0.0983
      3 C3          0.6013   -0.9845    3.8631 C.ar      1 <0>        -0.1253
      4 C4          1.2040   -0.1772    2.9073 C.ar      1 <0>         0.1439
      5 C5          0.6273    1.0393    2.5665 C.ar      1 <0>        -0.1413
      6 C6         -0.5432    1.4425    3.1788 C.ar      1 <0>        -0.0957
      7 N1          2.3901   -0.5885    2.2890 N.am      1 <0>        -0.6644
      8 C7          2.6680   -1.9020    2.1707 C.2       1 <0>         0.7088
      9 O1          1.8470   -2.7305    2.5145 O.2       1 <0>        -0.5481
     10 N2          3.8558   -2.2972    1.6715 N.am      1 <0>        -0.6725
     11 C8          4.1031   -3.6587    1.4449 C.ar      1 <0>         0.1395
     12 C9          3.0493   -4.5333    1.1845 C.ar      1 <0>         0.0259
     13 C10         3.3393   -5.8675    0.9664 C.ar      1 <0>        -0.1717
     14 C11         4.6638   -6.2900    1.0138 C.ar      1 <0>         0.4243
     15 N3          5.6392   -5.4312    1.2639 N.ar      1 <0>        -0.4857
     16 C12         5.3989   -4.1502    1.4714 C.ar      1 <0>         0.0908
     17 N4          4.9667   -7.6314    0.7961 N.pl3     1 <0>        -0.5787
     18 C13         6.3542   -8.0760    0.9968 C.3       1 <0>         0.1004
     19 C14         6.4421   -9.4109    1.7414 C.3       1 <0>        -0.1670
     20 C15         5.4332   -9.4517    2.8713 C.3       1 <0>         0.0933
     21 N5          4.1626   -9.9300    2.3265 N.am      1 <0>        -0.6054
     22 C16         3.2180   -9.1119    1.6491 C.3       1 <0>         0.0868
     23 C17         3.8956   -8.5234    0.3878 C.3       1 <0>         0.0901
     24 C18         3.8676  -11.2364    2.4770 C.2       1 <0>         0.5591
     25 O2          2.8817  -11.7026    1.9397 O.2       1 <0>        -0.5124
     26 C19         4.7420  -12.1018    3.2947 C.ar      1 <0>        -0.1542
     27 C20         4.1839  -13.0621    4.1412 C.ar      1 <0>        -0.0306
     28 C21         5.0044  -13.8669    4.9020 C.ar      1 <0>        -0.1545
     29 C22         6.3816  -13.7240    4.8284 C.ar      1 <0>         0.1327
     30 C23         6.9410  -12.7721    3.9897 C.ar      1 <0>        -0.1608
     31 C24         6.1299  -11.9663    3.2198 C.ar      1 <0>        -0.0805
     32 F1          7.1813  -14.5147    5.5770 F         1 <0>        -0.1274
     33 H1         -2.0584    0.9520    4.6044 H         1 <0>         0.1285
     34 H2         -1.0380   -1.2026    5.2155 H         1 <0>         0.1292
     35 H3          1.0476   -1.9309    4.1305 H         1 <0>         0.1413
     36 H4          1.0938    1.6694    1.8238 H         1 <0>         0.1278
     37 H5         -0.9921    2.3885    2.9143 H         1 <0>         0.1318
     38 H6          3.0122    0.0717    1.9457 H         1 <0>         0.4143
     39 H7          4.5397   -1.6397    1.4689 H         1 <0>         0.4227
     40 H8          2.0302   -4.1772    1.1541 H         1 <0>         0.1911
     41 H9          2.5474   -6.5729    0.7623 H         1 <0>         0.1851
     42 H10         6.2209   -3.4779    1.6680 H         1 <0>         0.2059
     43 H11         6.8342   -8.1830    0.0240 H         1 <0>         0.0978
     44 H12         6.8880   -7.3175    1.5693 H         1 <0>         0.0777
     45 H13         6.2384  -10.2255    1.0464 H         1 <0>         0.0939
     46 H14         7.4457   -9.5309    2.1494 H         1 <0>         0.1116
     47 H15         5.7794  -10.1315    3.6498 H         1 <0>         0.1157
     48 H16         5.3034   -8.4518    3.2855 H         1 <0>         0.0775
     49 H17         2.3563   -9.7122    1.3572 H         1 <0>         0.1273
     50 H18         2.8987   -8.3016    2.3044 H         1 <0>         0.0765
     51 H19         3.1584   -7.9677   -0.1917 H         1 <0>         0.1096
     52 H20         4.3046   -9.3324   -0.2174 H         1 <0>         0.1109
     53 H21         3.1113  -13.1737    4.1997 H         1 <0>         0.1449
     54 H22         4.5738  -14.6099    5.5569 H         1 <0>         0.1488
     55 H23         8.0143  -12.6646    3.9364 H         1 <0>         0.1458
     56 H24         6.5668  -11.2284    2.5632 H         1 <0>         0.1475
     57 H25         6.5546   -5.7508    1.2918 H         1 <0>         0.4420
@<TRIPOS>BOND
     1    1    6 ar
     2    1    2 ar
     3    1   33 1
     4    2    3 ar
     5    2   34 1
     6    3    4 ar
     7    3   35 1
     8    4    5 ar
     9    4    7 1
    10    5    6 ar
    11    5   36 1
    12    6   37 1
    13    7    8 am
    14    7   38 1
    15    8    9 2
    16    8   10 am
    17   10   11 1
    18   10   39 1
    19   11   16 ar
    20   11   12 ar
    21   12   13 ar
    22   12   40 1
    23   13   14 ar
    24   13   41 1
    25   14   15 ar
    26   14   17 1
    27   15   16 ar
    28   15   57 1
    29   16   42 1
    30   17   23 1
    31   17   18 1
    32   18   19 1
    33   18   43 1
    34   18   44 1
    35   19   20 1
    36   19   45 1
    37   19   46 1
    38   20   21 1
    39   20   47 1
    40   20   48 1
    41   21   22 1
    42   21   24 am
    43   22   23 1
    44   22   49 1
    45   22   50 1
    46   23   51 1
    47   23   52 1
    48   24   25 2
    49   24   26 1
    50   26   31 ar
    51   26   27 ar
    52   27   28 ar
    53   27   53 1
    54   28   29 ar
    55   28   54 1
    56   29   30 ar
    57   29   32 1
    58   30   31 ar
    59   30   55 1
    60   31   56 1
@<TRIPOS>MOLECULE
ZINC14731576
   73    78     0     0     0
SMALL
USER_CHARGES

@<TRIPOS>ATOM
      1 C1         -0.3436    1.8139    0.2495 C.3       1 <0>        -0.1715
      2 C2         -0.1382    0.3140    0.0279 C.3       1 <0>         0.1082
      3 N1         -1.4381   -0.3616    0.0244 N.pl3     1 <0>        -0.2620
      4 C3         -2.0485   -0.8624    1.1110 C.2       1 <0>         0.0125
      5 C4         -3.2227   -1.4009    0.6992 C.2       1 <0>        -0.1601
      6 C5         -3.2756   -1.1956   -0.6896 C.2       1 <0>         0.0056
      7 N2         -2.1660   -0.5575   -1.0206 N.2       1 <0>        -0.2384
      8 C6         -4.3620   -1.6074   -1.6017 C.2       1 <0>         0.5956
      9 O1         -5.3815   -2.0937   -1.1522 O.2       1 <0>        -0.5397
     10 N3         -4.2230   -1.4441   -2.9323 N.am      1 <0>        -0.5856
     11 C7         -2.9521   -0.9835   -3.4451 C.3       1 <0>         0.1059
     12 C8         -2.9402    0.5645   -3.4896 C.3       1 <0>        -0.1184
     13 C9         -3.8272    1.0517   -4.5571 C.3       1 <0>        -0.1250
     14 C10        -5.2973    0.6907   -4.3663 C.3       1 <0>        -0.1153
     15 C11        -5.5485   -0.6915   -4.9168 C.3       1 <0>        -0.1329
     16 C12        -5.3728   -1.7487   -3.8064 C.3       1 <0>         0.1117
     17 C13        -4.2213   -2.0670    1.6050 C.3       1 <0>        -0.0528
     18 C14        -3.8946   -1.6757    3.0526 C.3       1 <0>         0.0206
     19 H1         -4.1370   -0.6244    3.2081 H         1 <0>         0.1429
     20 C15        -2.4037   -1.9003    3.3190 C.3       1 <0>        -0.1343
     21 C16        -1.5794   -0.8652    2.5432 C.3       1 <0>        -0.0431
     22 N4         -4.6863   -2.5020    3.9736 N.4       1 <0>        -0.5067
     23 C17        -4.4642   -2.0479    5.3529 C.3       1 <0>         0.0279
     24 C18        -5.0073   -0.6268    5.5156 C.3       1 <0>        -0.0975
     25 H2         -4.4909    0.0407    4.8257 H         1 <0>         0.0975
     26 C19        -4.7760   -0.1538    6.9521 C.3       1 <0>        -0.1083
     27 C20        -5.5009   -1.0907    7.9205 C.3       1 <0>        -0.0908
     28 C21        -4.9578   -2.5118    7.7578 C.3       1 <0>        -0.1088
     29 C22        -5.1891   -2.9848    6.3213 C.3       1 <0>        -0.0974
     30 H3         -4.8022   -3.9972    6.2054 H         1 <0>         0.1038
     31 C23        -6.6882   -2.9736    6.0157 C.3       1 <0>        -0.1180
     32 C24        -7.2313   -1.5525    6.1784 C.3       1 <0>         0.1348
     33 C25        -6.5064   -0.6156    5.2101 C.3       1 <0>        -0.1575
     34 C26        -7.0000   -1.0795    7.6150 C.3       1 <0>        -0.1438
     35 O2         -8.6314   -1.5421    5.8931 O.3       1 <0>        -0.5536
     36 H4          0.6236    2.3166    0.2521 H         1 <0>         0.0891
     37 H5         -0.9612    2.2185   -0.5523 H         1 <0>         0.0710
     38 H6         -0.8394    1.9752    1.2067 H         1 <0>         0.0625
     39 H7          0.3576    0.1528   -0.9293 H         1 <0>         0.1103
     40 H8          0.4794   -0.0905    0.8297 H         1 <0>         0.1042
     41 H9         -2.1501   -1.3341   -2.7955 H         1 <0>         0.0963
     42 H10        -2.8024   -1.3767   -4.4506 H         1 <0>         0.0767
     43 H11        -3.2808    0.9556   -2.5310 H         1 <0>         0.0616
     44 H12        -1.9244    0.9122   -3.6779 H         1 <0>         0.0722
     45 H13        -3.7414    2.1370   -4.6100 H         1 <0>         0.0584
     46 H14        -3.4887    0.6346   -5.5056 H         1 <0>         0.0613
     47 H15        -5.5413    0.7089   -3.3041 H         1 <0>         0.0603
     48 H16        -5.9204    1.4117   -4.8954 H         1 <0>         0.0658
     49 H17        -6.5638   -0.7451   -5.3096 H         1 <0>         0.0801
     50 H18        -4.8408   -0.8945   -5.7206 H         1 <0>         0.0697
     51 H19        -5.2203   -2.7261   -4.2641 H         1 <0>         0.0687
     52 H20        -6.2788   -1.7806   -3.2013 H         1 <0>         0.0908
     53 H21        -5.2273   -1.7323    1.3520 H         1 <0>         0.1085
     54 H22        -4.1545   -3.1492    1.4929 H         1 <0>         0.0965
     55 H23        -2.2060   -1.7959    4.3858 H         1 <0>         0.0977
     56 H24        -2.1244   -2.9029    2.9952 H         1 <0>         0.0975
     57 H25        -0.5232   -1.1316    2.5832 H         1 <0>         0.1013
     58 H26        -1.7263    0.1227    2.9797 H         1 <0>         0.0956
     59 H27        -5.6653   -2.4168    3.7450 H         1 <0>         0.4271
     60 H28        -3.3962   -2.0558    5.5706 H         1 <0>         0.1462
     61 H29        -3.7080   -0.1617    7.1698 H         1 <0>         0.0793
     62 H30        -5.1629    0.8587    7.0680 H         1 <0>         0.0860
     63 H31        -5.3361   -0.7537    8.9439 H         1 <0>         0.0921
     64 H32        -3.8898   -2.5197    7.9755 H         1 <0>         0.0800
     65 H33        -5.4742   -3.1792    8.4477 H         1 <0>         0.0885
     66 H34        -6.8530   -3.3106    4.9923 H         1 <0>         0.0664
     67 H35        -7.2046   -3.6411    6.7056 H         1 <0>         0.0998
     68 H36        -6.8933    0.3968    5.3259 H         1 <0>         0.0946
     69 H37        -6.6712   -0.9526    4.1866 H         1 <0>         0.0670
     70 H38        -7.5164   -1.7470    8.3048 H         1 <0>         0.0819
     71 H39        -7.3869   -0.0671    7.7309 H         1 <0>         0.0752
     72 H40        -9.0434   -0.6712    5.9765 H         1 <0>         0.3872
     73 H41        -4.4035   -3.4668    3.8875 H         1 <0>         0.4268
@<TRIPOS>BOND
     1    1    2 1
     2    1   36 1
     3    1   37 1
     4    1   38 1
     5    2    3 1
     6    2   39 1
     7    2   40 1
     8    3    7 1
     9    3    4 1
    10    4   21 1
    11    4    5 2
    12    5    6 1
    13    5   17 1
    14    6    7 2
    15    6    8 1
    16    8    9 2
    17    8   10 am
    18   10   16 1
    19   10   11 1
    20   11   12 1
    21   11   41 1
    22   11   42 1
    23   12   13 1
    24   12   43 1
    25   12   44 1
    26   13   14 1
    27   13   45 1
    28   13   46 1
    29   14   15 1
    30   14   47 1
    31   14   48 1
    32   15   16 1
    33   15   49 1
    34   15   50 1
    35   16   51 1
    36   16   52 1
    37   17   18 1
    38   17   53 1
    39   17   54 1
    40   18   19 1
    41   18   20 1
    42   18   22 1
    43   20   21 1
    44   20   55 1
    45   20   56 1
    46   21   57 1
    47   21   58 1
    48   22   23 1
    49   22   59 1
    50   22   73 1
    51   23   29 1
    52   23   24 1
    53   23   60 1
    54   24   25 1
    55   24   33 1
    56   24   26 1
    57   26   27 1
    58   26   61 1
    59   26   62 1
    60   27   34 1
    61   27   28 1
    62   27   63 1
    63   28   29 1
    64   28   64 1
    65   28   65 1
    66   29   30 1
    67   29   31 1
    68   31   32 1
    69   31   66 1
    70   31   67 1
    71   32   33 1
    72   32   34 1
    73   32   35 1
    74   33   68 1
    75   33   69 1
    76   34   70 1
    77   34   71 1
    78   35   72 1
@<TRIPOS>MOLECULE
ZINC40428682
   61    66     0     0     0
SMALL
USER_CHARGES

@<TRIPOS>ATOM
      1 C1         -0.0168    1.3902    0.0097 C.ar      1 <0>        -0.0494
      2 C2          1.1696    2.0939    0.0021 C.ar      1 <0>        -0.1608
      3 C3          2.3788    1.4175   -0.0135 C.ar      1 <0>         0.1178
      4 C4          2.4027    0.0320   -0.0216 C.ar      1 <0>        -0.1622
      5 C5          1.2214   -0.6804   -0.0142 C.ar      1 <0>        -0.0260
      6 C6          0.0021   -0.0041    0.0020 C.ar      1 <0>        -0.0354
      7 C7         -1.2698   -0.7648    0.0106 C.2       1 <0>         0.1819
      8 C8         -1.5037   -1.9743   -0.6340 C.2       1 <0>        -0.0330
      9 N1         -2.8102   -2.3166   -0.3600 N.pl3     1 <0>        -0.3434
     10 C9         -3.5727   -3.3854   -0.7245 C.2       1 <0>         0.0694
     11 C10        -4.8558   -3.4880   -0.3139 C.2       1 <0>        -0.1425
     12 C11        -5.4197   -2.4902    0.4958 C.2       1 <0>        -0.0732
     13 C12        -4.6674   -1.4178    0.8663 C.2       1 <0>        -0.0588
     14 C13        -3.3309   -1.3267    0.4296 C.2       1 <0>         0.2432
     15 N2         -2.3922   -0.4122    0.6437 N.2       1 <0>        -0.4736
     16 C14        -6.8513   -2.6050    0.9526 C.3       1 <0>        -0.0507
     17 C15        -7.0278   -3.8907    1.7656 C.3       1 <0>        -0.1402
     18 C16        -8.4991   -4.0412    2.1585 C.3       1 <0>        -0.0064
     19 N3         -9.3279   -4.1078    0.9489 N.4       1 <0>        -0.3815
     20 C17        -9.2192   -2.8496    0.2008 C.3       1 <0>        -0.0066
     21 C18        -7.7757   -2.6532   -0.2673 C.3       1 <0>        -0.1404
     22 C19       -10.7293   -4.3303    1.3290 C.3       1 <0>         0.0264
     23 C20       -11.5749   -4.5242    0.0688 C.3       1 <0>        -0.2121
     24 C21       -12.6609   -3.4858   -0.2200 C.3       1 <0>        -0.1682
     25 C22       -13.0495   -4.8868    0.2563 C.3       1 <0>        -0.1495
     26 C23        -0.5460   -2.7376   -1.4480 C.ar      1 <0>         0.2991
     27 C24        -0.6944   -4.1237   -1.6120 C.ar      1 <0>        -0.3026
     28 C25         0.2299   -4.7962   -2.3852 C.ar      1 <0>         0.2094
     29 N4          1.2228   -4.1200   -2.9461 N.ar      1 <0>        -0.5704
     30 C26         1.3412   -2.8110   -2.7761 C.ar      1 <0>         0.5815
     31 N5          0.4765   -2.1227   -2.0482 N.ar      1 <0>        -0.5513
     32 N6          2.3936   -2.1454   -3.3804 N.pl3     1 <0>        -0.8135
     33 F1          3.5383    2.1109   -0.0213 F         1 <0>        -0.1353
     34 H1         -0.9588    1.9182    0.0260 H         1 <0>         0.1373
     35 H2          1.1559    3.1738    0.0081 H         1 <0>         0.1408
     36 H3          3.3475   -0.4909   -0.0342 H         1 <0>         0.1368
     37 H4          1.2409   -1.7602   -0.0212 H         1 <0>         0.1233
     38 H5         -3.1474   -4.1578   -1.3480 H         1 <0>         0.1713
     39 H6         -5.4492   -4.3404   -0.6099 H         1 <0>         0.1509
     40 H7         -5.0913   -0.6438    1.4890 H         1 <0>         0.1581
     41 H8         -7.1070   -1.7439    1.5700 H         1 <0>         0.1036
     42 H9         -6.7223   -4.7467    1.1640 H         1 <0>         0.0920
     43 H10        -6.4143   -3.8397    2.6651 H         1 <0>         0.1171
     44 H11        -8.6283   -4.9555    2.7377 H         1 <0>         0.1333
     45 H12        -8.8034   -3.1849    2.7603 H         1 <0>         0.1310
     46 H13        -9.8801   -2.8841   -0.6653 H         1 <0>         0.1343
     47 H14        -9.5082   -2.0187    0.8444 H         1 <0>         0.1299
     48 H15        -7.6968   -1.7176   -0.8210 H         1 <0>         0.1161
     49 H16        -7.4857   -3.4835   -0.9112 H         1 <0>         0.0911
     50 H17       -10.7993   -5.2205    1.9541 H         1 <0>         0.1330
     51 H18       -11.0967   -3.4670    1.8839 H         1 <0>         0.1293
     52 H19       -11.0543   -4.9590   -0.7844 H         1 <0>         0.1242
     53 H20       -12.7728   -2.6645    0.4879 H         1 <0>         0.1061
     54 H21       -12.8547   -3.2371   -1.2634 H         1 <0>         0.1098
     55 H22       -13.4990   -5.5600   -0.4737 H         1 <0>         0.1120
     56 H23       -13.4171   -4.9873    1.2775 H         1 <0>         0.1077
     57 H24        -1.5122   -4.6514   -1.1440 H         1 <0>         0.1375
     58 H25         0.1454   -5.8628   -2.5317 H         1 <0>         0.1728
     59 H26         3.0325   -2.6370   -3.9200 H         1 <0>         0.4192
     60 H27         2.4923   -1.1875   -3.2644 H         1 <0>         0.4175
     61 H28        -9.0137   -4.8711    0.3687 H         1 <0>         0.4223
@<TRIPOS>BOND
     1    1    6 ar
     2    1    2 ar
     3    1   34 1
     4    2    3 ar
     5    2   35 1
     6    3    4 ar
     7    3   33 1
     8    4    5 ar
     9    4   36 1
    10    5    6 ar
    11    5   37 1
    12    6    7 1
    13    7   15 1
    14    7    8 2
    15    8    9 1
    16    8   26 1
    17    9   14 1
    18    9   10 1
    19   10   11 2
    20   10   38 1
    21   11   12 1
    22   11   39 1
    23   12   13 2
    24   12   16 1
    25   13   14 1
    26   13   40 1
    27   14   15 2
    28   16   21 1
    29   16   17 1
    30   16   41 1
    31   17   18 1
    32   17   42 1
    33   17   43 1
    34   18   19 1
    35   18   44 1
    36   18   45 1
    37   19   20 1
    38   19   22 1
    39   19   61 1
    40   20   21 1
    41   20   46 1
    42   20   47 1
    43   21   48 1
    44   21   49 1
    45   22   23 1
    46   22   50 1
    47   22   51 1
    48   23   25 1
    49   23   24 1
    50   23   52 1
    51   24   25 1
    52   24   53 1
    53   24   54 1
    54   25   55 1
    55   25   56 1
    56   26   31 ar
    57   26   27 ar
    58   27   28 ar
    59   27   57 1
    60   28   29 ar
    61   28   58 1
    62   29   30 ar
    63   30   31 ar
    64   30   32 1
    65   32   59 1
    66   32   60 1
@<TRIPOS>MOLECULE
ZINC64417224
   58    61     0     0     0
SMALL
USER_CHARGES

@<TRIPOS>ATOM
      1 C1         -0.0184    1.5028    0.0103 C.3       1 <0>        -0.1197
      2 C2          0.0021   -0.0041    0.0020 C.ar      1 <0>        -0.0315
      3 C3          0.0058   -0.6890   -1.1983 C.ar      1 <0>        -0.1611
      4 C4          0.0291   -2.0745   -1.2044 C.ar      1 <0>         0.1531
      5 C5          0.0463   -2.7805   -0.0061 C.ar      1 <0>        -0.1849
      6 C6          0.0358   -2.0926    1.1928 C.ar      1 <0>         0.1407
      7 C7          0.0228   -0.7009    1.1930 C.ar      1 <0>        -0.1420
      8 O1          0.0311   -2.7384    2.3909 O.3       1 <0>        -0.2976
      9 C8          0.2578   -4.0672    2.3831 C.2       1 <0>         0.4935
     10 O2          0.9501   -4.5960    3.2204 O.2       1 <0>        -0.4101
     11 C9         -0.3974   -4.8666    1.2744 C.3       1 <0>        -0.1139
     12 H1         -0.1033   -5.9135    1.3497 H         1 <0>         0.1285
     13 C10         0.0822   -4.2868   -0.0598 C.3       1 <0>        -0.0390
     14 H2         -0.5685   -4.6362   -0.8614 H         1 <0>         0.1132
     15 C11         1.5144   -4.7519   -0.3308 C.3       1 <0>        -0.1497
     16 C12        -1.9192   -4.7464    1.3772 C.3       1 <0>        -0.1347
     17 C13        -2.3885   -5.3890    2.6570 C.2       1 <0>         0.5109
     18 O3         -1.5849   -5.8934    3.4124 O.2       1 <0>        -0.5153
     19 N1         -3.7012   -5.4031    2.9620 N.am      1 <0>        -0.7348
     20 C14        -4.1575   -6.0277    4.2061 C.3       1 <0>         0.1248
     21 C15        -5.6793   -5.9075    4.3089 C.3       1 <0>        -0.1013
     22 C16        -6.1486   -6.5501    5.5887 C.2       1 <0>         0.0529
     23 C17        -6.3870   -5.9332    6.7681 C.ar      1 <0>        -0.1257
     24 C18        -6.2848   -4.5346    7.1985 C.ar      1 <0>        -0.0962
     25 C19        -6.5964   -4.2048    8.4749 C.ar      1 <0>         0.1055
     26 C20        -7.0189   -5.1607    9.4152 C.ar      1 <0>        -0.0256
     27 C21        -7.1434   -6.4710    9.1142 C.ar      1 <0>        -0.1563
     28 C22        -6.8323   -6.9394    7.7599 C.ar      1 <0>         0.3150
     29 N2         -6.8676   -8.1298    7.2152 N.pl3     1 <0>        -0.5691
     30 C23        -6.4545   -8.0143    5.8119 C.3       1 <0>         0.0606
     31 O4         -6.4967   -2.9051    8.8598 O.3       1 <0>        -0.3015
     32 C24        -6.8350   -2.6020   10.2147 C.3       1 <0>         0.0144
     33 O5          0.0346   -2.7461   -2.3857 O.3       1 <0>        -0.4912
     34 H3          1.0042    1.8801    0.0026 H         1 <0>         0.0803
     35 H4         -0.5455    1.8639   -0.8728 H         1 <0>         0.0749
     36 H5         -0.5286    1.8543    0.9071 H         1 <0>         0.0736
     37 H6         -0.0098   -0.1447   -2.1311 H         1 <0>         0.1384
     38 H7          0.0253   -0.1636    2.1299 H         1 <0>         0.1400
     39 H8          2.1677   -4.4006    0.4679 H         1 <0>         0.0559
     40 H9          1.5416   -5.8408   -0.3699 H         1 <0>         0.0729
     41 H10         1.8543   -4.3455   -1.2834 H         1 <0>         0.0671
     42 H11        -2.2015   -3.6936    1.3744 H         1 <0>         0.1061
     43 H12        -2.3815   -5.2488    0.5275 H         1 <0>         0.1197
     44 H13        -4.3439   -4.9996    2.3577 H         1 <0>         0.4074
     45 H14        -3.8752   -7.0805    4.2089 H         1 <0>         0.0783
     46 H15        -3.6951   -5.5253    5.0558 H         1 <0>         0.0794
     47 H16        -5.9616   -4.8547    4.3061 H         1 <0>         0.1163
     48 H17        -6.1417   -6.4099    3.4593 H         1 <0>         0.1180
     49 H18        -5.9633   -3.7735    6.5029 H         1 <0>         0.1645
     50 H19        -7.2527   -4.8341   10.4178 H         1 <0>         0.1681
     51 H20        -7.4708   -7.1716    9.8682 H         1 <0>         0.1703
     52 H21        -7.2616   -8.3342    5.1528 H         1 <0>         0.1786
     53 H22        -5.5629   -8.6157    5.6344 H         1 <0>         0.1775
     54 H23        -7.8709   -2.8844   10.4025 H         1 <0>         0.0648
     55 H24        -6.1797   -3.1573   10.8858 H         1 <0>         0.0649
     56 H25        -6.7124   -1.5331   10.3894 H         1 <0>         0.1174
     57 H26         0.9194   -2.9257   -2.7320 H         1 <0>         0.3963
     58 H27        -7.1272   -8.9500    7.6633 H         1 <0>         0.4575
@<TRIPOS>BOND
     1    1    2 1
     2    1   34 1
     3    1   35 1
     4    1   36 1
     5    2    7 ar
     6    2    3 ar
     7    3    4 ar
     8    3   37 1
     9    4    5 ar
    10    4   33 1
    11    5   13 1
    12    5    6 ar
    13    6    7 ar
    14    6    8 1
    15    7   38 1
    16    8    9 1
    17    9   10 2
    18    9   11 1
    19   11   12 1
    20   11   13 1
    21   11   16 1
    22   13   14 1
    23   13   15 1
    24   15   39 1
    25   15   40 1
    26   15   41 1
    27   16   17 1
    28   16   42 1
    29   16   43 1
    30   17   18 2
    31   17   19 am
    32   19   20 1
    33   19   44 1
    34   20   21 1
    35   20   45 1
    36   20   46 1
    37   21   22 1
    38   21   47 1
    39   21   48 1
    40   22   30 1
    41   22   23 2
    42   23   28 ar
    43   23   24 ar
    44   24   25 ar
    45   24   49 1
    46   25   26 ar
    47   25   31 1
    48   26   27 ar
    49   26   50 1
    50   27   28 ar
    51   27   51 1
    52   28   29 2
    53   29   30 1
    54   29   58 1
    55   30   52 1
    56   30   53 1
    57   31   32 1
    58   32   54 1
    59   32   55 1
    60   32   56 1
    61   33   57 1
@<TRIPOS>MOLECULE
ZINC08920490
   75    77     0     0     0
SMALL
USER_CHARGES
8-[4-(diisobutylsulfamoyl)benzoyl]amino-4-ethyl-N-methyl-7-thia-4-azabicyclo[4.3.0]nona-8,10-diene-9-carboxamide
@<TRIPOS>ATOM
      1 C1          5.9054    5.7675   -4.8191 C.3       1 <0>        -0.1931
      2 C2          6.1848    4.3907   -5.4251 C.3       1 <0>        -0.0040
      3 C3          5.3704    2.1119   -5.5191 C.3       1 <0>         0.0031
      4 C4          4.7584    0.9991   -4.6633 C.3       1 <0>        -0.0899
      5 C5          3.3768    1.4551   -4.2088 C.2       1 <0>        -0.0393
      6 C6          3.0419    2.7643   -4.2650 C.2       1 <0>        -0.3174
      7 S1          1.3800    2.8310   -3.6634 S.3       1 <0>         0.3300
      8 C7          1.1350    1.1477   -3.3312 C.2       1 <0>         0.1018
      9 C8          2.3438    0.5722   -3.7012 C.2       1 <0>        -0.2329
     10 C9          2.5670   -0.8720   -3.5837 C.2       1 <0>         0.5679
     11 O1          2.2946   -1.6076   -4.5144 O.2       1 <0>        -0.5171
     12 N1          3.0737   -1.3852   -2.4452 N.am      1 <0>        -0.7245
     13 C10         3.2967   -2.8283   -2.3278 C.3       1 <0>         0.0799
     14 N2          0.0051    0.5260   -2.8249 N.am      1 <0>        -0.6152
     15 C11        -1.0881    1.2551   -2.5252 C.2       1 <0>         0.5616
     16 O2         -1.0810    2.4589   -2.6944 O.2       1 <0>        -0.4820
     17 C12        -2.2955    0.5911   -1.9909 C.ar      1 <0>        -0.0929
     18 C13        -2.3090   -0.7919   -1.8007 C.ar      1 <0>        -0.1027
     19 C14        -3.4371   -1.4045   -1.2958 C.ar      1 <0>        -0.0226
     20 C15        -4.5579   -0.6531   -0.9895 C.ar      1 <0>        -0.6441
     21 C16        -4.5532    0.7173   -1.1809 C.ar      1 <0>        -0.0227
     22 C17        -3.4295    1.3433   -1.6794 C.ar      1 <0>        -0.0667
     23 S2         -5.9973   -1.4447   -0.3524 S.o2      1 <0>         2.6803
     24 O3         -5.5622   -2.6571    0.2475 O.2       1 <0>        -0.9396
     25 O4         -6.7202   -0.4552    0.3671 O.2       1 <0>        -0.9449
     26 N3         -6.9372   -1.8686   -1.6484 N.pl3     1 <0>        -0.9868
     27 C18        -6.7630   -3.1777   -2.2825 C.3       1 <0>         0.1144
     28 C19        -7.9203   -4.0956   -1.8837 C.3       1 <0>        -0.1117
     29 C20        -7.8062   -5.4192   -2.6426 C.3       1 <0>        -0.1473
     30 C21        -7.8628   -4.3641   -0.3785 C.3       1 <0>        -0.1485
     31 C22        -7.9427   -0.9344   -2.1607 C.3       1 <0>         0.1135
     32 C23        -7.3318   -0.0921   -3.2824 C.3       1 <0>        -0.1196
     33 C24        -6.9250   -1.0043   -4.4414 C.3       1 <0>        -0.1497
     34 C25        -8.3615    0.9276   -3.7731 C.3       1 <0>        -0.1491
     35 C26         3.9122    3.8844   -4.7426 C.3       1 <0>         0.1055
     36 H1          4.8657    6.0400   -5.0003 H         1 <0>         0.0826
     37 H2          6.0910    5.7364   -3.7455 H         1 <0>         0.0812
     38 H3          6.5604    6.5070   -5.2798 H         1 <0>         0.1073
     39 H4          7.2246    4.1182   -5.2439 H         1 <0>         0.1320
     40 H5          5.9992    4.4218   -6.4987 H         1 <0>         0.1325
     41 H6          6.4121    1.8722   -5.7326 H         1 <0>         0.1383
     42 H7          4.8202    2.1910   -6.4567 H         1 <0>         0.1351
     43 H8          5.3893    0.8142   -3.7940 H         1 <0>         0.1063
     44 H9          4.6689    0.0875   -5.2543 H         1 <0>         0.1245
     45 H10         3.2908   -0.7990   -1.7034 H         1 <0>         0.4042
     46 H11         2.3502   -3.3538   -2.4550 H         1 <0>         0.0657
     47 H12         3.9979   -3.1514   -3.0972 H         1 <0>         0.0662
     48 H13         3.7078   -3.0536   -1.3437 H         1 <0>         0.0834
     49 H14        -0.0006   -0.4345   -2.6899 H         1 <0>         0.4265
     50 H15        -1.4365   -1.3801   -2.0439 H         1 <0>         0.1338
     51 H16        -3.4472   -2.4737   -1.1433 H         1 <0>         0.1529
     52 H17        -5.4310    1.2981   -0.9392 H         1 <0>         0.1547
     53 H18        -3.4270    2.4131   -1.8280 H         1 <0>         0.1528
     54 H19        -6.7510   -3.0579   -3.3659 H         1 <0>         0.0884
     55 H20        -5.8209   -3.6175   -1.9552 H         1 <0>         0.0858
     56 H21        -8.8669   -3.6152   -2.1311 H         1 <0>         0.0768
     57 H22        -6.8596   -5.8995   -2.3951 H         1 <0>         0.0579
     58 H23        -8.6307   -6.0731   -2.3584 H         1 <0>         0.0615
     59 H24        -7.8472   -5.2279   -3.7149 H         1 <0>         0.0563
     60 H25        -6.9161   -4.8444   -0.1310 H         1 <0>         0.0676
     61 H26        -7.9440   -3.4211    0.1622 H         1 <0>         0.0427
     62 H27        -8.6872   -5.0180   -0.0943 H         1 <0>         0.0580
     63 H28        -8.7940   -1.4938   -2.5488 H         1 <0>         0.0931
     64 H29        -8.2749   -0.2801   -1.3547 H         1 <0>         0.0961
     65 H30        -6.4528    0.4313   -2.9062 H         1 <0>         0.0667
     66 H31        -6.0969   -1.6408   -4.1295 H         1 <0>         0.0574
     67 H32        -7.7727   -1.6261   -4.7293 H         1 <0>         0.0602
     68 H33        -6.6155   -0.3959   -5.2912 H         1 <0>         0.0546
     69 H34        -8.6513    1.5774   -2.9474 H         1 <0>         0.0603
     70 H35        -7.9262    1.5277   -4.5722 H         1 <0>         0.0593
     71 H36        -9.2405    0.4042   -4.1493 H         1 <0>         0.0609
     72 H37         3.8481    4.7217   -4.0477 H         1 <0>         0.1431
     73 H38         3.5904    4.2031   -5.7340 H         1 <0>         0.1444
     74 N4          5.3098    3.3890   -4.7787 N.4       1 <0>        -0.3951
     75 H39         5.6343    3.2335   -3.8171 H         1 <0>         0.4302
@<TRIPOS>BOND
     1    1    2 1
     2    1   36 1
     3    1   37 1
     4    1   38 1
     5    2   39 1
     6    2   40 1
     7    2   74 1
     8    3    4 1
     9    3   41 1
    10    3   42 1
    11    3   74 1
    12    4    5 1
    13    4   43 1
    14    4   44 1
    15    5    9 1
    16    5    6 2
    17    6    7 1
    18    6   35 1
    19    7    8 1
    20    8    9 2
    21    8   14 1
    22    9   10 1
    23   10   11 2
    24   10   12 am
    25   12   13 1
    26   12   45 1
    27   13   46 1
    28   13   47 1
    29   13   48 1
    30   14   15 am
    31   14   49 1
    32   15   16 2
    33   15   17 1
    34   17   22 ar
    35   17   18 ar
    36   18   19 ar
    37   18   50 1
    38   19   20 ar
    39   19   51 1
    40   20   21 ar
    41   20   23 1
    42   21   22 ar
    43   21   52 1
    44   22   53 1
    45   23   24 2
    46   23   25 2
    47   23   26 1
    48   26   27 1
    49   26   31 1
    50   27   28 1
    51   27   54 1
    52   27   55 1
    53   28   29 1
    54   28   30 1
    55   28   56 1
    56   29   57 1
    57   29   58 1
    58   29   59 1
    59   30   60 1
    60   30   61 1
    61   30   62 1
    62   31   32 1
    63   31   63 1
    64   31   64 1
    65   32   33 1
    66   32   34 1
    67   32   65 1
    68   33   66 1
    69   33   67 1
    70   33   68 1
    71   34   69 1
    72   34   70 1
    73   34   71 1
    74   35   72 1
    75   35   73 1
    76   35   74 1
    77   74   75 1
@<TRIPOS>MOLECULE
ZINC33129155
   73    76     0     0     0
SMALL
USER_CHARGES
N-cycloheptyl-6-piperazin-1-yl-5-[(2,4,5-trimethylphenyl)sulfonylamino]pyridine-3-carboxamide
@<TRIPOS>ATOM
      1 C1         -2.0891    0.4163    6.6884 C.3       1 <0>        -0.1302
      2 C2         -2.1900    0.2063    5.1995 C.ar      1 <0>        -0.0187
      3 C3         -2.5552   -1.0296    4.6989 C.ar      1 <0>        -0.1273
      4 C4         -2.6478   -1.2222    3.3334 C.ar      1 <0>         0.0311
      5 C5         -2.3761   -0.1787    2.4681 C.ar      1 <0>        -0.6772
      6 C6         -2.0063    1.0555    2.9684 C.ar      1 <0>        -0.0453
      7 C7         -1.9179    1.2493    4.3345 C.ar      1 <0>        -0.1099
      8 C8         -1.5203    2.5966    4.8801 C.3       1 <0>        -0.1145
      9 S1         -2.4941   -0.4243    0.7273 S.o2      1 <0>         2.6829
     10 O1         -3.7829   -0.9695    0.4805 O.2       1 <0>        -0.9350
     11 O2         -1.2995   -1.0821    0.3280 O.2       1 <0>        -0.9296
     12 N1         -2.4697    1.0724    0.0189 N.pl3     1 <0>        -1.0648
     13 C9         -1.3436    1.8934    0.1555 C.ar      1 <0>         0.0999
     14 C10        -0.0743    1.3425    0.1916 C.ar      1 <0>        -0.0517
     15 C11         1.0232    2.2073    0.3240 C.ar      1 <0>        -0.1549
     16 C12         0.7969    3.5806    0.4196 C.ar      1 <0>         0.1471
     17 N2         -0.4269    4.0660    0.3873 N.ar      1 <0>        -0.4914
     18 C13        -1.4869    3.2816    0.2635 C.ar      1 <0>         0.2934
     19 N3         -2.7548    3.8435    0.2342 N.pl3     1 <0>        -0.4712
     20 C14        -3.6086    3.2718    1.2848 C.3       1 <0>        -0.0017
     21 C15        -5.0176    3.8579    1.1685 C.3       1 <0>         0.0015
     22 N4         -4.9482    5.3209    1.2884 N.4       1 <0>        -0.5393
     23 C16        -4.0945    5.8926    0.2378 C.3       1 <0>        -0.0035
     24 C17        -2.6854    5.3065    0.3541 C.3       1 <0>         0.0339
     25 C18         2.3974    1.6714    0.3611 C.2       1 <0>         0.5579
     26 O3          2.5851    0.4731    0.2767 O.2       1 <0>        -0.5145
     27 N5          3.4446    2.5102    0.4884 N.am      1 <0>        -0.7298
     28 C19         4.8091    1.9782    0.5252 C.3       1 <0>         0.1524
     29 C20         5.1322    1.5311    1.9656 C.3       1 <0>        -0.1188
     30 C21         6.2723    0.5490    1.9162 C.3       1 <0>        -0.1174
     31 C22         7.6403    1.2259    2.1264 C.3       1 <0>        -0.1210
     32 C23         7.7669    2.5638    1.3731 C.3       1 <0>        -0.1245
     33 C24         7.1850    2.5013   -0.0132 C.3       1 <0>        -0.1171
     34 C25         5.7268    3.0005    0.0446 C.3       1 <0>        -0.1333
     35 C26        -3.0454   -2.5695    2.7877 C.3       1 <0>        -0.1543
     36 H1         -2.3404   -0.5198    7.2086 H         1 <0>         0.0764
     37 H2         -2.7903    1.2062    6.9956 H         1 <0>         0.0797
     38 H3         -1.0629    0.7158    6.9477 H         1 <0>         0.0820
     39 H4         -2.7679   -1.8447    5.3748 H         1 <0>         0.1409
     40 H5         -1.7897    1.8694    2.2923 H         1 <0>         0.1216
     41 H6         -1.3458    3.2928    4.0465 H         1 <0>         0.0567
     42 H7         -0.5987    2.4950    5.4721 H         1 <0>         0.0795
     43 H8         -2.3262    2.9854    5.5200 H         1 <0>         0.0747
     44 H9         -3.3381    1.4216   -0.5590 H         1 <0>         0.4610
     45 H10         0.0682    0.2746    0.1154 H         1 <0>         0.1930
     46 H11         1.6354    4.2536    0.5217 H         1 <0>         0.1719
     47 H12        -3.6540    2.1792    1.1662 H         1 <0>         0.1306
     48 H13        -3.1890    3.5163    2.2718 H         1 <0>         0.0790
     49 H14        -5.4471    3.5890    0.1922 H         1 <0>         0.1437
     50 H15        -5.6507    3.4528    1.9717 H         1 <0>         0.1464
     51 H16        -5.9587    5.7449    1.1929 H         1 <0>         0.4604
     52 H17        -4.5141    5.6480   -0.7491 H         1 <0>         0.1386
     53 H18        -4.0492    6.9853    0.3563 H         1 <0>         0.1446
     54 H19        -2.2552    5.5744    1.3304 H         1 <0>         0.0798
     55 H20        -2.0517    5.7106   -0.4491 H         1 <0>         0.1357
     56 H21         3.2747    3.5943    0.5647 H         1 <0>         0.4144
     57 H22         4.9032    1.1364   -0.1766 H         1 <0>         0.0888
     58 H23         5.4172    2.4074    2.5663 H         1 <0>         0.0692
     59 H24         4.2454    1.0550    2.4094 H         1 <0>         0.0659
     60 H25         6.1414   -0.2048    2.7066 H         1 <0>         0.0639
     61 H26         6.2863    0.0525    0.9347 H         1 <0>         0.0652
     62 H27         7.7885    1.4282    3.1974 H         1 <0>         0.0601
     63 H28         8.4381    0.5603    1.7651 H         1 <0>         0.0627
     64 H29         7.2342    3.3494    1.9290 H         1 <0>         0.0606
     65 H30         8.8292    2.8347    1.2827 H         1 <0>         0.0624
     66 H31         7.7740    3.1406   -0.6872 H         1 <0>         0.0700
     67 H32         7.2121    1.4631   -0.3758 H         1 <0>         0.0699
     68 H33         5.4331    3.3094   -0.9695 H         1 <0>         0.0688
     69 H34         5.6919    3.8701    0.7173 H         1 <0>         0.0677
     70 H35        -3.0644   -2.5288    1.6886 H         1 <0>         0.0631
     71 H36        -4.0447   -2.8363    3.1621 H         1 <0>         0.1007
     72 H37        -2.3173   -3.3267    3.1141 H         1 <0>         0.0985
     73 H38        -4.5293    5.5889    2.2696 H         1 <0>         0.4490
@<TRIPOS>BOND
     1    1    2 1
     2    1   36 1
     3    1   37 1
     4    1   38 1
     5    2    7 ar
     6    2    3 ar
     7    3    4 ar
     8    3   39 1
     9    4    5 ar
    10    4   35 1
    11    5    6 ar
    12    5    9 1
    13    6    7 ar
    14    6   40 1
    15    7    8 1
    16    8   41 1
    17    8   42 1
    18    8   43 1
    19    9   10 2
    20    9   11 2
    21    9   12 1
    22   12   13 1
    23   12   44 1
    24   13   18 ar
    25   13   14 ar
    26   14   15 ar
    27   14   45 1
    28   15   16 ar
    29   15   25 1
    30   16   17 ar
    31   16   46 1
    32   17   18 ar
    33   18   19 1
    34   19   24 1
    35   19   20 1
    36   20   21 1
    37   20   47 1
    38   20   48 1
    39   21   22 1
    40   21   49 1
    41   21   50 1
    42   22   23 1
    43   22   51 1
    44   22   73 1
    45   23   24 1
    46   23   52 1
    47   23   53 1
    48   24   54 1
    49   24   55 1
    50   25   26 2
    51   25   27 am
    52   27   28 1
    53   27   56 1
    54   28   34 1
    55   28   29 1
    56   28   57 1
    57   29   30 1
    58   29   58 1
    59   29   59 1
    60   30   31 1
    61   30   60 1
    62   30   61 1
    63   31   32 1
    64   31   62 1
    65   31   63 1
    66   32   33 1
    67   32   64 1
    68   32   65 1
    69   33   34 1
    70   33   66 1
    71   33   67 1
    72   34   68 1
    73   34   69 1
    74   35   70 1
    75   35   71 1
    76   35   72 1
@<TRIPOS>MOLECULE
ZINC39404340
   60    63     0     0     0
SMALL
USER_CHARGES

@<TRIPOS>ATOM
      1 C1         -0.0187    1.5258    0.0104 C.3       1 <0>        -0.1530
      2 C2          0.0021   -0.0041    0.0020 C.3       1 <0>         0.0598
      3 O1         -1.3386   -0.4987    0.0122 O.3       1 <0>        -0.3537
      4 C3         -1.4964   -1.8317    0.0065 C.2       1 <0>         0.4679
      5 O2         -0.5283   -2.5546   -0.0066 O.2       1 <0>        -0.4705
      6 C4         -2.8809   -2.4266    0.0165 C.3       1 <0>        -0.0570
      7 H1         -3.4237   -2.0788   -0.8624 H         1 <0>         0.1281
      8 C5         -3.6245   -1.9546    1.2890 C.3       1 <0>         0.1708
      9 H2         -3.1857   -1.0427    1.6939 H         1 <0>         0.1420
     10 S1         -3.2815   -3.4072    2.3685 S.3       1 <0>        -0.0702
     11 C6         -2.9402   -4.6000    1.0954 C.2       1 <0>        -0.0885
     12 C7         -2.7714   -3.9296   -0.0351 C.2       1 <0>        -0.1500
     13 C8         -2.4767   -4.6612   -1.3431 C.3       1 <0>        -0.0555
     14 C9         -1.9623   -6.0649   -1.0277 C.3       1 <0>        -0.1223
     15 C10        -2.9403   -6.7672   -0.0804 C.3       1 <0>        -0.1140
     16 C11        -2.8616   -6.0891    1.2850 C.3       1 <0>        -0.0528
     17 N1         -5.0597   -1.7920    1.0442 N.am      1 <0>        -0.7100
     18 C12        -5.9533   -2.2688    1.9333 C.2       1 <0>         0.5287
     19 O3         -5.5693   -2.8324    2.9362 O.2       1 <0>        -0.4604
     20 C13        -7.4297   -2.1016    1.6814 C.3       1 <0>        -0.1798
     21 S2         -8.3641   -2.8426    3.0483 S.3       1 <0>         0.0549
     22 C14       -10.0985   -2.5605    2.5980 C.3       1 <0>         0.1273
     23 H3        -10.7615   -2.9598    3.3655 H         1 <0>         0.2355
     24 N2        -10.3985   -3.1685    1.2876 N.pl3     1 <0>        -0.6438
     25 C15       -10.7723   -2.0939    0.4956 C.cat     1 <0>         0.5775
     26 N3        -10.7126   -0.9530    1.2244 N.2       1 <0>        -0.1557
     27 N4        -10.3514   -1.1267    2.3929 N.2       1 <0>         0.0232
     28 N5        -11.1291   -2.1699   -0.7686 N.pl3     1 <0>        -0.3704
     29 N6        -11.1493   -3.3133   -1.3655 N.2       1 <0>        -0.3491
     30 C16       -11.5043   -3.3888   -2.6229 C.2       1 <0>         0.2378
     31 C17       -11.5273   -4.6915   -3.3029 C.ar      1 <0>        -0.1076
     32 C18       -11.1758   -5.8542   -2.6075 C.ar      1 <0>        -0.0435
     33 C19       -11.2003   -7.0722   -3.2519 C.ar      1 <0>        -0.1218
     34 C20       -11.5711   -7.1474   -4.5848 C.ar      1 <0>         0.0104
     35 C21       -11.9203   -6.0008   -5.2799 C.ar      1 <0>        -0.1172
     36 C22       -11.9063   -4.7763   -4.6476 C.ar      1 <0>        -0.0453
     37 Cl1       -11.5977   -8.6861   -5.3883 Cl        1 <0>        -0.0366
     38 H4          1.0039    1.9031    0.0027 H         1 <0>         0.0848
     39 H5         -0.5459    1.8868   -0.8726 H         1 <0>         0.0672
     40 H6         -0.5289    1.8773    0.9072 H         1 <0>         0.0677
     41 H7          0.5123   -0.3556   -0.8948 H         1 <0>         0.0715
     42 H8          0.5293   -0.3651    0.8851 H         1 <0>         0.0726
     43 H9         -3.3895   -4.7321   -1.9345 H         1 <0>         0.0714
     44 H10        -1.7196   -4.1134   -1.9043 H         1 <0>         0.0755
     45 H11        -1.8775   -6.6369   -1.9517 H         1 <0>         0.0723
     46 H12        -0.9836   -5.9950   -0.5528 H         1 <0>         0.0720
     47 H13        -3.9537   -6.6844   -0.4732 H         1 <0>         0.0642
     48 H14        -2.6664   -7.8178    0.0157 H         1 <0>         0.0772
     49 H15        -1.9180   -6.3468    1.7661 H         1 <0>         0.0895
     50 H16        -3.6934   -6.4229    1.9054 H         1 <0>         0.0839
     51 H17        -5.3669   -1.3412    0.2421 H         1 <0>         0.4085
     52 H18        -7.6684   -1.0403    1.6114 H         1 <0>         0.1258
     53 H19        -7.6973   -2.5965    0.7479 H         1 <0>         0.1147
     54 H20       -11.7803   -2.4939   -3.1608 H         1 <0>         0.1520
     55 H21       -10.8859   -5.7970   -1.5687 H         1 <0>         0.1414
     56 H22       -10.9293   -7.9702   -2.7166 H         1 <0>         0.1476
     57 H23       -12.2083   -6.0673   -6.3187 H         1 <0>         0.1512
     58 H24       -12.1827   -3.8839   -5.1895 H         1 <0>         0.1488
     59 H25       -10.3459   -4.1043    1.0377 H         1 <0>         0.4753
     60 H26       -11.3770   -1.3661   -1.2517 H         1 <0>         0.4298
@<TRIPOS>BOND
     1    1    2 1
     2    1   38 1
     3    1   39 1
     4    1   40 1
     5    2    3 1
     6    2   41 1
     7    2   42 1
     8    3    4 1
     9    4    5 2
    10    4    6 1
    11    6    7 1
    12    6   12 1
    13    6    8 1
    14    8    9 1
    15    8   10 1
    16    8   17 1
    17   10   11 1
    18   11   16 1
    19   11   12 2
    20   12   13 1
    21   13   14 1
    22   13   43 1
    23   13   44 1
    24   14   15 1
    25   14   45 1
    26   14   46 1
    27   15   16 1
    28   15   47 1
    29   15   48 1
    30   16   49 1
    31   16   50 1
    32   17   18 am
    33   17   51 1
    34   18   19 2
    35   18   20 1
    36   20   21 1
    37   20   52 1
    38   20   53 1
    39   21   22 1
    40   22   23 1
    41   22   27 1
    42   22   24 1
    43   24   25 1
    44   24   59 1
    45   25   26 1
    46   25   28 2
    47   26   27 2
    48   28   29 1
    49   28   60 1
    50   29   30 2
    51   30   31 1
    52   30   54 1
    53   31   36 ar
    54   31   32 ar
    55   32   33 ar
    56   32   55 1
    57   33   34 ar
    58   33   56 1
    59   34   35 ar
    60   34   37 1
    61   35   36 ar
    62   35   57 1
    63   36   58 1
@<TRIPOS>MOLECULE
ZINC39666263
   79    82     0     0     0
SMALL
USER_CHARGES

@<TRIPOS>ATOM
      1 C1          1.4484   -9.1881   -8.3795 C.3       1 <0>        -0.1172
      2 C2          1.4258   -9.2937   -6.8763 C.ar      1 <0>        -0.1150
      3 C3          0.6819   -8.3963   -6.1326 C.ar      1 <0>        -0.0755
      4 C4          0.6599   -8.4906   -4.7546 C.ar      1 <0>        -0.2043
      5 C5          1.3845   -9.4871   -4.1170 C.ar      1 <0>         0.1172
      6 C6          2.1298  -10.3866   -4.8655 C.ar      1 <0>        -0.1539
      7 C7          2.1444  -10.2912   -6.2436 C.ar      1 <0>        -0.0821
      8 O1          1.3648   -9.5817   -2.7614 O.3       1 <0>        -0.3123
      9 C8          0.6901   -8.5433   -2.0484 C.3       1 <0>         0.0702
     10 H1          0.7073   -7.6269   -2.6384 H         1 <0>         0.0853
     11 C9         -0.7602   -8.9586   -1.7936 C.3       1 <0>        -0.1775
     12 C10         1.3940   -8.3022   -0.7114 C.3       1 <0>         0.1209
     13 N1          2.7446   -7.7901   -0.9559 N.am      1 <0>        -0.7291
     14 C11         3.5549   -7.5038    0.0823 C.2       1 <0>         0.5142
     15 O2          3.1660   -7.6700    1.2189 O.2       1 <0>        -0.5088
     16 C12         4.9443   -6.9771   -0.1693 C.3       1 <0>        -0.1141
     17 H2          4.9457   -6.3081   -1.0298 H         1 <0>         0.1199
     18 C13         5.4767   -6.2444    1.0826 C.3       1 <0>         0.1220
     19 N2          6.2654   -7.2678    1.8082 N.am      1 <0>        -0.6184
     20 C14         6.9643   -8.0209    0.7393 C.3       1 <0>         0.0984
     21 C15         5.9254   -8.1400   -0.3935 C.3       1 <0>        -0.0732
     22 C16         6.6066   -8.0023   -1.7516 C.3       1 <0>        -0.1349
     23 C17         7.5332   -9.2005   -1.9767 C.3       1 <0>        -0.0101
     24 N3          6.7525  -10.4423   -1.9220 N.4       1 <0>        -0.5049
     25 C18         6.1770  -10.6133   -0.5825 C.3       1 <0>        -0.0091
     26 C19         5.1930   -9.4749   -0.2985 C.3       1 <0>        -0.1515
     27 C20         6.3326   -7.4685    3.1393 C.2       1 <0>         0.5419
     28 O3          5.7669   -6.7084    3.8964 O.2       1 <0>        -0.4862
     29 C21         7.1106   -8.6373    3.6868 C.3       1 <0>         0.0765
     30 H3          6.8018   -9.5500    3.1771 H         1 <0>         0.0943
     31 C22         8.6057   -8.4066    3.4585 C.3       1 <0>        -0.1076
     32 C23         9.0637   -7.1917    4.2680 C.3       1 <0>        -0.1495
     33 C24         9.3870   -9.6429    3.9080 C.3       1 <0>        -0.1541
     34 O4          6.8566   -8.7645    5.0873 O.3       1 <0>        -0.2762
     35 C25         6.8107  -10.0246    5.5940 C.ar      1 <0>         0.1278
     36 C26         6.5940  -10.2207    6.9502 C.ar      1 <0>        -0.1454
     37 C27         6.5473  -11.5026    7.4628 C.ar      1 <0>        -0.0736
     38 C28         6.7167  -12.5898    6.6255 C.ar      1 <0>        -0.1535
     39 C29         6.9332  -12.3971    5.2736 C.ar      1 <0>        -0.0810
     40 C30         6.9747  -11.1173    4.7551 C.ar      1 <0>        -0.2157
     41 H4          0.6385   -9.7856   -8.7979 H         1 <0>         0.0729
     42 H5          1.3201   -8.1461   -8.6725 H         1 <0>         0.0681
     43 H6          2.4031   -9.5563   -8.7552 H         1 <0>         0.0670
     44 H7          0.1179   -7.6207   -6.6294 H         1 <0>         0.1278
     45 H8          0.0792   -7.7890   -4.1740 H         1 <0>         0.1305
     46 H9          2.6948  -11.1632   -4.3715 H         1 <0>         0.1243
     47 H10         2.7208  -10.9938   -6.8270 H         1 <0>         0.1293
     48 H11        -1.2748   -8.1665   -1.2497 H         1 <0>         0.0802
     49 H12        -1.2616   -9.1304   -2.7461 H         1 <0>         0.0715
     50 H13        -0.7774   -9.8750   -1.2035 H         1 <0>         0.0738
     51 H14         0.8291   -7.5739   -0.1296 H         1 <0>         0.0940
     52 H15         1.4554   -9.2398   -0.1589 H         1 <0>         0.0830
     53 H16         3.0557   -7.6572   -1.8650 H         1 <0>         0.3995
     54 H17         6.1139   -5.4092    0.7919 H         1 <0>         0.0893
     55 H18         4.6486   -5.8950    1.6994 H         1 <0>         0.1038
     56 H19         7.8393   -7.4694    0.3953 H         1 <0>         0.0918
     57 H20         7.2528   -9.0094    1.0967 H         1 <0>         0.0815
     58 H21         5.8509   -7.9743   -2.5366 H         1 <0>         0.0988
     59 H22         7.1900   -7.0819   -1.7744 H         1 <0>         0.1236
     60 H23         8.0087   -9.1133   -2.9536 H         1 <0>         0.1414
     61 H24         8.2986   -9.2184   -1.2009 H         1 <0>         0.1327
     62 H25         6.0093  -10.4011   -2.6032 H         1 <0>         0.4297
     63 H26         5.6527  -11.5676   -0.5316 H         1 <0>         0.1401
     64 H27         6.9747  -10.5975    0.1602 H         1 <0>         0.1305
     65 H28         4.7796   -9.5927    0.7032 H         1 <0>         0.1196
     66 H29         4.3861   -9.5002   -1.0309 H         1 <0>         0.1040
     67 H30         8.7881   -8.2269    2.3990 H         1 <0>         0.0817
     68 H31         8.8814   -7.3714    5.3275 H         1 <0>         0.0707
     69 H32        10.1289   -7.0274    4.1054 H         1 <0>         0.0635
     70 H33         8.5072   -6.3109    3.9478 H         1 <0>         0.0562
     71 H34         9.2047   -9.8226    4.9675 H         1 <0>         0.0684
     72 H35         9.0607  -10.5084    3.3312 H         1 <0>         0.0547
     73 H36        10.4522   -9.4785    3.7453 H         1 <0>         0.0675
     74 H37         6.4624   -9.3717    7.6048 H         1 <0>         0.1343
     75 H38         6.3787  -11.6558    8.5185 H         1 <0>         0.1338
     76 H39         6.6802  -13.5913    7.0283 H         1 <0>         0.1269
     77 H40         7.0656  -13.2479    4.6217 H         1 <0>         0.1236
     78 H41         7.1394  -10.9674    3.6983 H         1 <0>         0.1216
     79 H42         7.3535  -11.2254   -2.1308 H         1 <0>         0.4343
@<TRIPOS>BOND
     1    1    2 1
     2    1   41 1
     3    1   42 1
     4    1   43 1
     5    2    7 ar
     6    2    3 ar
     7    3    4 ar
     8    3   44 1
     9    4    5 ar
    10    4   45 1
    11    5    6 ar
    12    5    8 1
    13    6    7 ar
    14    6   46 1
    15    7   47 1
    16    8    9 1
    17    9   10 1
    18    9   11 1
    19    9   12 1
    20   11   48 1
    21   11   49 1
    22   11   50 1
    23   12   13 1
    24   12   51 1
    25   12   52 1
    26   13   14 am
    27   13   53 1
    28   14   15 2
    29   14   16 1
    30   16   17 1
    31   16   21 1
    32   16   18 1
    33   18   19 1
    34   18   54 1
    35   18   55 1
    36   19   20 1
    37   19   27 am
    38   20   21 1
    39   20   56 1
    40   20   57 1
    41   21   26 1
    42   21   22 1
    43   22   23 1
    44   22   58 1
    45   22   59 1
    46   23   24 1
    47   23   60 1
    48   23   61 1
    49   24   25 1
    50   24   62 1
    51   24   79 1
    52   25   26 1
    53   25   63 1
    54   25   64 1
    55   26   65 1
    56   26   66 1
    57   27   28 2
    58   27   29 1
    59   29   30 1
    60   29   31 1
    61   29   34 1
    62   31   32 1
    63   31   33 1
    64   31   67 1
    65   32   68 1
    66   32   69 1
    67   32   70 1
    68   33   71 1
    69   33   72 1
    70   33   73 1
    71   34   35 1
    72   35   40 ar
    73   35   36 ar
    74   36   37 ar
    75   36   74 1
    76   37   38 ar
    77   37   75 1
    78   38   39 ar
    79   38   76 1
    80   39   40 ar
    81   39   77 1
    82   40   78 1
@<TRIPOS>MOLECULE
ZINC39695847
   78    82     0     0     0
SMALL
USER_CHARGES

@<TRIPOS>ATOM
      1 C1          9.0888   -8.9350    0.7464 C.3       1 <0>        -0.1186
      2 C2          7.6203   -9.1951    0.9630 C.ar      1 <0>        -0.0546
      3 C3          7.1156  -10.4770    0.7964 C.ar      1 <0>        -0.1209
      4 C4          5.7876  -10.7334    0.9880 C.ar      1 <0>        -0.0602
      5 C5          4.9246   -9.6978    1.3560 C.ar      1 <0>         0.0398
      6 C6          5.4351   -8.3998    1.5252 C.ar      1 <0>         0.0607
      7 C7          6.7886   -8.1591    1.3308 C.ar      1 <0>        -0.1165
      8 N1          4.3599   -7.6109    1.8822 N.pl3     1 <0>        -0.5898
      9 C8          3.2632   -8.4149    1.9204 C.2       1 <0>         0.2614
     10 N2          3.5927   -9.6354    1.6128 N.2       1 <0>        -0.4862
     11 C9          1.8699   -7.9585    2.2688 C.3       1 <0>         0.2269
     12 H1          1.7135   -6.9480    1.8914 H         1 <0>         0.1119
     13 C10         1.6952   -7.9680    3.7888 C.3       1 <0>        -0.1610
     14 N3          0.8927   -8.8641    1.6593 N.am      1 <0>        -0.7126
     15 C11        -0.3535   -8.4277    1.3893 C.2       1 <0>         0.5244
     16 O1         -0.6660   -7.2854    1.6508 O.2       1 <0>        -0.5179
     17 C12        -1.3587   -9.3592    0.7624 C.3       1 <0>        -0.1127
     18 H2         -0.8675  -10.0234    0.0512 H         1 <0>         0.1175
     19 C13        -2.4759   -8.5531    0.0626 C.3       1 <0>         0.0975
     20 N4         -3.7128   -9.3283    0.3176 N.am      1 <0>        -0.6204
     21 C14        -3.5705   -9.8003    1.7158 C.3       1 <0>         0.1102
     22 C15        -2.0810  -10.1760    1.8469 C.3       1 <0>        -0.0731
     23 C16        -1.8896  -11.6692    1.5992 C.3       1 <0>        -0.1367
     24 C17        -2.5687  -12.4590    2.7216 C.3       1 <0>        -0.0110
     25 N5         -1.9845  -12.0779    4.0132 N.4       1 <0>        -0.5046
     26 C18        -2.2536  -10.6610    4.2862 C.3       1 <0>        -0.0074
     27 C19        -1.5614   -9.7951    3.2298 C.3       1 <0>        -0.1506
     28 C20        -4.7361   -9.5535   -0.5301 C.2       1 <0>         0.5467
     29 O2         -5.7305  -10.1285   -0.1411 O.2       1 <0>        -0.5023
     30 C21        -4.6446   -9.0907   -1.9614 C.3       1 <0>         0.0735
     31 H3         -4.0470   -8.1805   -2.0115 H         1 <0>         0.0984
     32 C22        -3.9853  -10.1809   -2.8087 C.3       1 <0>        -0.1056
     33 C23        -4.0151   -9.7695   -4.2821 C.3       1 <0>        -0.1543
     34 C24        -2.5344  -10.3676   -2.3605 C.3       1 <0>        -0.1570
     35 O3         -5.9570   -8.8271   -2.4616 O.3       1 <0>        -0.2842
     36 C25        -6.0889   -7.7922   -3.3325 C.ar      1 <0>         0.1240
     37 C26        -7.3323   -7.4891   -3.8681 C.ar      1 <0>        -0.1467
     38 C27        -7.4639   -6.4363   -4.7529 C.ar      1 <0>        -0.0762
     39 C28        -6.3577   -5.6853   -5.1051 C.ar      1 <0>        -0.1518
     40 C29        -5.1173   -5.9857   -4.5730 C.ar      1 <0>        -0.0786
     41 C30        -4.9816   -7.0336   -3.6831 C.ar      1 <0>        -0.2118
     42 H4          9.6253   -9.0774    1.6845 H         1 <0>         0.0767
     43 H5          9.4742   -9.6281   -0.0013 H         1 <0>         0.0735
     44 H6          9.2292   -7.9112    0.3994 H         1 <0>         0.0697
     45 H7          7.7795  -11.2801    0.5121 H         1 <0>         0.1340
     46 H8          5.4053  -11.7346    0.8550 H         1 <0>         0.1305
     47 H9          7.1872   -7.1641    1.4632 H         1 <0>         0.1269
     48 H10         0.6874   -7.6379    4.0407 H         1 <0>         0.0764
     49 H11         1.8516   -8.9785    4.1662 H         1 <0>         0.0664
     50 H12         2.4223   -7.2942    4.2422 H         1 <0>         0.0750
     51 H13         1.1427   -9.7777    1.4502 H         1 <0>         0.4138
     52 H14        -2.5552   -7.5569    0.4978 H         1 <0>         0.1049
     53 H15        -2.2829   -8.4867   -1.0081 H         1 <0>         0.0986
     54 H16        -3.8256   -9.0033    2.4142 H         1 <0>         0.0871
     55 H17        -4.1988  -10.6741    1.8882 H         1 <0>         0.0907
     56 H18        -2.3361  -11.9395    0.6423 H         1 <0>         0.1186
     57 H19        -0.8248  -11.9018    1.5832 H         1 <0>         0.1000
     58 H20        -3.6361  -12.2382    2.7265 H         1 <0>         0.1341
     59 H21        -2.4197  -13.5261    2.5563 H         1 <0>         0.1407
     60 H22        -2.3903  -12.6429    4.7441 H         1 <0>         0.4346
     61 H23        -3.3284  -10.4829    4.2543 H         1 <0>         0.1336
     62 H24        -1.8721  -10.4028    5.2741 H         1 <0>         0.1396
     63 H25        -0.4848   -9.9604    3.2722 H         1 <0>         0.1017
     64 H26        -1.7767   -8.7442    3.4227 H         1 <0>         0.1247
     65 H27        -4.5282  -11.1176   -2.6820 H         1 <0>         0.0894
     66 H28        -3.4723   -8.8328   -4.4088 H         1 <0>         0.0623
     67 H29        -3.5455  -10.5461   -4.8857 H         1 <0>         0.0673
     68 H30        -5.0488   -9.6365   -4.6014 H         1 <0>         0.0663
     69 H31        -2.5155  -10.7372   -1.3353 H         1 <0>         0.0562
     70 H32        -2.0416  -11.0865   -3.0151 H         1 <0>         0.0741
     71 H33        -2.0124   -9.4121   -2.4120 H         1 <0>         0.0622
     72 H34        -8.1965   -8.0758   -3.5939 H         1 <0>         0.1327
     73 H35        -8.4316   -6.1999   -5.1701 H         1 <0>         0.1332
     74 H36        -6.4626   -4.8629   -5.7972 H         1 <0>         0.1273
     75 H37        -4.2547   -5.3978   -4.8499 H         1 <0>         0.1266
     76 H38        -4.0133   -7.2651   -3.2644 H         1 <0>         0.1261
     77 H39        -0.9875  -12.2308    3.9880 H         1 <0>         0.4286
     78 H40         4.3823   -6.6597    2.0710 H         1 <0>         0.4262
@<TRIPOS>BOND
     1    1    2 1
     2    1   42 1
     3    1   43 1
     4    1   44 1
     5    2    7 ar
     6    2    3 ar
     7    3    4 ar
     8    3   45 1
     9    4    5 ar
    10    4   46 1
    11    5   10 1
    12    5    6 ar
    13    6    7 ar
    14    6    8 1
    15    7   47 1
    16    8    9 1
    17    8   78 1
    18    9   10 2
    19    9   11 1
    20   11   12 1
    21   11   13 1
    22   11   14 1
    23   13   48 1
    24   13   49 1
    25   13   50 1
    26   14   15 am
    27   14   51 1
    28   15   16 2
    29   15   17 1
    30   17   18 1
    31   17   22 1
    32   17   19 1
    33   19   20 1
    34   19   52 1
    35   19   53 1
    36   20   21 1
    37   20   28 am
    38   21   22 1
    39   21   54 1
    40   21   55 1
    41   22   27 1
    42   22   23 1
    43   23   24 1
    44   23   56 1
    45   23   57 1
    46   24   25 1
    47   24   58 1
    48   24   59 1
    49   25   26 1
    50   25   60 1
    51   25   77 1
    52   26   27 1
    53   26   61 1
    54   26   62 1
    55   27   63 1
    56   27   64 1
    57   28   29 2
    58   28   30 1
    59   30   31 1
    60   30   32 1
    61   30   35 1
    62   32   33 1
    63   32   34 1
    64   32   65 1
    65   33   66 1
    66   33   67 1
    67   33   68 1
    68   34   69 1
    69   34   70 1
    70   34   71 1
    71   35   36 1
    72   36   41 ar
    73   36   37 ar
    74   37   38 ar
    75   37   72 1
    76   38   39 ar
    77   38   73 1
    78   39   40 ar
    79   39   74 1
    80   40   41 ar
    81   40   75 1
    82   41   76 1
@<TRIPOS>MOLECULE
ZINC10435196
   70    74     0     0     0
SMALL
USER_CHARGES
2-(2-hydroxyethylamino)-1-[3-(4-methoxyphenyl)-5-[1-phenyl-3-(p-tolyl)pyrazol-4-yl]-4,5-dihydropyrazol-1-yl]-ethanone
@<TRIPOS>ATOM
      1 C1          9.3316    4.7309    2.4525 C.3       1 <0>        -0.1225
      2 C2          8.6842    3.8352    1.4279 C.ar      1 <0>        -0.0664
      3 C3          9.4712    3.1024    0.5578 C.ar      1 <0>        -0.1177
      4 C4          8.8836    2.2812   -0.3830 C.ar      1 <0>        -0.0799
      5 C5          7.4949    2.1908   -0.4551 C.ar      1 <0>        -0.0348
      6 C6          6.7070    2.9353    0.4204 C.ar      1 <0>        -0.1044
      7 C7          7.3053    3.7493    1.3608 C.ar      1 <0>        -0.1194
      8 C8          6.8575    1.3096   -1.4645 C.2       1 <0>         0.1483
      9 C9          5.6688    0.5742   -1.2881 C.2       1 <0>        -0.2256
     10 C10         5.4200   -0.0943   -2.4352 C.2       1 <0>         0.0765
     11 N1          6.4158    0.1979   -3.3121 N.pl3     1 <0>        -0.3108
     12 N2          7.3057    1.0760   -2.6802 N.2       1 <0>        -0.2611
     13 C11         6.5322   -0.2930   -4.6192 C.ar      1 <0>         0.1521
     14 C12         5.5770   -1.1664   -5.1220 C.ar      1 <0>        -0.1434
     15 C13         5.6918   -1.6445   -6.4127 C.ar      1 <0>        -0.0923
     16 C14         6.7626   -1.2630   -7.2002 C.ar      1 <0>        -0.1215
     17 C15         7.7183   -0.3974   -6.7005 C.ar      1 <0>        -0.0895
     18 C16         7.6061    0.0885   -5.4126 C.ar      1 <0>        -0.1142
     19 C17         4.8214    0.5438   -0.0423 C.3       1 <0>         0.1977
     20 H1          5.4500    0.5540    0.8481 H         1 <0>         0.1147
     21 C18         3.8383    1.7311   -0.0259 C.3       1 <0>        -0.1440
     22 C19         2.4758    1.0757   -0.0163 C.2       1 <0>         0.2075
     23 N3          2.6143   -0.2051   -0.0195 N.2       1 <0>        -0.2838
     24 N4          3.9397   -0.6344   -0.0405 N.am      1 <0>        -0.4498
     25 C20         4.3477   -1.9188   -0.0518 C.2       1 <0>         0.5314
     26 O1          5.5326   -2.1788   -0.0649 O.2       1 <0>        -0.5050
     27 C21         3.3320   -3.0321   -0.0483 C.3       1 <0>        -0.0130
     28 C22         3.0643   -5.4385   -0.0595 C.3       1 <0>         0.0017
     29 C23         3.8218   -6.7677   -0.0745 C.3       1 <0>         0.0447
     30 O2          4.5642   -6.9066    1.1386 O.3       1 <0>        -0.5808
     31 C24         1.1873    1.7920    0.0003 C.ar      1 <0>        -0.1029
     32 C25        -0.0126    1.0758    0.0080 C.ar      1 <0>        -0.0276
     33 C26        -1.2146    1.7496    0.0173 C.ar      1 <0>        -0.2169
     34 C27        -1.2346    3.1384    0.0308 C.ar      1 <0>         0.1647
     35 C28        -0.0444    3.8544    0.0233 C.ar      1 <0>        -0.1535
     36 C29         1.1623    3.1891    0.0081 C.ar      1 <0>        -0.0358
     37 O3         -2.4218    3.7984    0.0462 O.3       1 <0>        -0.3090
     38 C30        -3.6075    3.0008    0.0532 C.3       1 <0>         0.0226
     39 H2          9.4715    5.7255    2.0290 H         1 <0>         0.0767
     40 H3          8.6922    4.7974    3.3327 H         1 <0>         0.0702
     41 H4         10.2994    4.3177    2.7367 H         1 <0>         0.0704
     42 H5         10.5473    3.1732    0.6146 H         1 <0>         0.1297
     43 H6          9.4989    1.7095   -1.0619 H         1 <0>         0.1271
     44 H7          5.6302    2.8724    0.3659 H         1 <0>         0.1264
     45 H8          6.6956    4.3237    2.0426 H         1 <0>         0.1300
     46 H9          4.5791   -0.7456   -2.6220 H         1 <0>         0.1648
     47 H10         4.7431   -1.4685   -4.5058 H         1 <0>         0.1212
     48 H11         4.9466   -2.3201   -6.8060 H         1 <0>         0.1346
     49 H12         6.8526   -1.6417   -8.2076 H         1 <0>         0.1340
     50 H13         8.5531   -0.1008   -7.3182 H         1 <0>         0.1377
     51 H14         8.3530    0.7643   -5.0228 H         1 <0>         0.1402
     52 H15         3.9622    2.3425   -0.9197 H         1 <0>         0.1203
     53 H16         3.9797    2.3322    0.8723 H         1 <0>         0.1235
     54 H17         2.7163   -2.9593    0.8482 H         1 <0>         0.1657
     55 H18         2.6989   -2.9491   -0.9317 H         1 <0>         0.1629
     56 H19         2.4467   -5.3824    0.8369 H         1 <0>         0.1412
     57 H20         2.4293   -5.3722   -0.9429 H         1 <0>         0.1461
     58 H21         3.1114   -7.5898   -0.1619 H         1 <0>         0.0986
     59 H22         4.5056   -6.7867   -0.9232 H         1 <0>         0.0734
     60 H23         5.0702   -7.7285    1.1981 H         1 <0>         0.4107
     61 H24         0.0021   -0.0041    0.0020 H         1 <0>         0.1341
     62 H25        -2.1425    1.1969    0.0183 H         1 <0>         0.1378
     63 H26        -0.0647    4.9342    0.0297 H         1 <0>         0.1437
     64 H27         2.0872    3.7467    0.0019 H         1 <0>         0.1395
     65 H28        -3.6135    2.3665    0.9396 H         1 <0>         0.0607
     66 H29        -4.4825    3.6506    0.0654 H         1 <0>         0.1078
     67 H30        -3.6308    2.3767   -0.8402 H         1 <0>         0.0603
     68 N5          4.0357   -4.3285   -0.0626 N.4       1 <0>        -0.5077
     69 H31         4.6330   -4.3988    0.7696 H         1 <0>         0.4465
     70 H32         4.6167   -4.3892   -0.9070 H         1 <0>         0.4357
@<TRIPOS>BOND
     1    1    2 1
     2    1   39 1
     3    1   40 1
     4    1   41 1
     5    2    7 ar
     6    2    3 ar
     7    3    4 ar
     8    3   42 1
     9    4    5 ar
    10    4   43 1
    11    5    6 ar
    12    5    8 1
    13    6    7 ar
    14    6   44 1
    15    7   45 1
    16    8   12 2
    17    8    9 1
    18    9   10 2
    19    9   19 1
    20   10   11 1
    21   10   46 1
    22   11   12 1
    23   11   13 1
    24   13   18 ar
    25   13   14 ar
    26   14   15 ar
    27   14   47 1
    28   15   16 ar
    29   15   48 1
    30   16   17 ar
    31   16   49 1
    32   17   18 ar
    33   17   50 1
    34   18   51 1
    35   19   20 1
    36   19   24 1
    37   19   21 1
    38   21   22 1
    39   21   52 1
    40   21   53 1
    41   22   23 2
    42   22   31 1
    43   23   24 1
    44   24   25 am
    45   25   26 2
    46   25   27 1
    47   27   54 1
    48   27   55 1
    49   27   68 1
    50   28   29 1
    51   28   56 1
    52   28   57 1
    53   28   68 1
    54   29   30 1
    55   29   58 1
    56   29   59 1
    57   30   60 1
    58   31   36 ar
    59   31   32 ar
    60   32   33 ar
    61   32   61 1
    62   33   34 ar
    63   33   62 1
    64   34   35 ar
    65   34   37 1
    66   35   36 ar
    67   35   63 1
    68   36   64 1
    69   37   38 1
    70   38   65 1
    71   38   66 1
    72   38   67 1
    73   68   69 1
    74   68   70 1
@<TRIPOS>MOLECULE
ZINC39599863
   66    70     0     0     0
SMALL
USER_CHARGES

@<TRIPOS>ATOM
      1 C1         -0.4364    1.1193   -0.2493 C.ar      1 <0>        -0.1093
      2 C2          0.7024    1.8887   -0.0985 C.ar      1 <0>        -0.1080
      3 C3          1.9434    1.2845   -0.0311 C.ar      1 <0>        -0.1070
      4 C4          2.0496   -0.0960   -0.1143 C.ar      1 <0>         0.0475
      5 C5          0.9048   -0.8695   -0.2634 C.ar      1 <0>         0.0418
      6 C6         -0.3376   -0.2566   -0.3319 C.ar      1 <0>        -0.1080
      7 O1          0.9857   -2.2261   -0.3393 O.3       1 <0>        -0.2969
      8 C7          2.2718   -2.7782   -0.6412 C.3       1 <0>         0.0349
      9 C8          3.3145   -2.0779    0.2406 C.3       1 <0>         0.0370
     10 H1          3.0764   -2.2411    1.2916 H         1 <0>         0.1121
     11 O2          3.2791   -0.6765   -0.0505 O.3       1 <0>        -0.2800
     12 C9          4.6856   -2.6259   -0.0609 C.2       1 <0>         0.5546
     13 O3          5.4792   -1.9607   -0.6922 O.2       1 <0>        -0.4948
     14 N1          5.0298   -3.8554    0.3709 N.am      1 <0>        -0.6219
     15 C10         4.1720   -4.8503    1.0568 C.3       1 <0>         0.1007
     16 C11         4.5910   -6.2094    0.4528 C.3       1 <0>        -0.1136
     17 H2          3.9295   -6.4790   -0.3704 H         1 <0>         0.1144
     18 C12         6.0227   -5.9853   -0.0621 C.3       1 <0>        -0.0721
     19 C13         6.3503   -4.5204    0.2611 C.3       1 <0>         0.1107
     20 C14         6.0839   -6.2130   -1.5694 C.3       1 <0>        -0.1353
     21 C15         7.5279   -6.0403   -2.0487 C.3       1 <0>        -0.0116
     22 N2          8.3943   -6.9997   -1.3531 N.4       1 <0>        -0.5048
     23 C16         8.4020   -6.7151    0.0869 C.3       1 <0>        -0.0083
     24 C17         6.9948   -6.9160    0.6565 C.3       1 <0>        -0.1469
     25 C18         4.5735   -7.2818    1.5115 C.2       1 <0>         0.5195
     26 O4          4.8133   -6.9982    2.6660 O.2       1 <0>        -0.5176
     27 N3          4.2912   -8.5561    1.1752 N.am      1 <0>        -0.7232
     28 C19         4.2741   -9.5986    2.2044 C.3       1 <0>         0.1628
     29 C20         3.9343  -10.9235    1.5717 C.ar      1 <0>        -0.1375
     30 C21         2.6138  -11.3201    1.4678 C.ar      1 <0>        -0.0590
     31 C22         2.2997  -12.5344    0.8887 C.ar      1 <0>        -0.1216
     32 C23         3.3104  -13.3558    0.4107 C.ar      1 <0>         0.1224
     33 C24         4.6345  -12.9552    0.5158 C.ar      1 <0>        -0.1934
     34 C25         4.9431  -11.7377    1.0910 C.ar      1 <0>        -0.0601
     35 O5          3.0040  -14.5509   -0.1590 O.3       1 <0>        -0.3082
     36 C26         4.0955  -15.3445   -0.6289 C.3       1 <0>         0.6052
     37 F1          4.9476  -15.6447    0.4393 F         1 <0>        -0.1624
     38 F2          3.6046  -16.5321   -1.1818 F         1 <0>        -0.1243
     39 F3          4.8031  -14.6335   -1.6042 F         1 <0>        -0.1661
     40 H3         -1.4051    1.5942   -0.2982 H         1 <0>         0.1380
     41 H4          0.6220    2.9637   -0.0336 H         1 <0>         0.1382
     42 H5          2.8315    1.8878    0.0861 H         1 <0>         0.1385
     43 H6         -1.2287   -0.8553   -0.4498 H         1 <0>         0.1385
     44 H7          2.2712   -3.8477   -0.4308 H         1 <0>         0.1219
     45 H8          2.5065   -2.6099   -1.6922 H         1 <0>         0.0855
     46 H9          4.3594   -4.8376    2.1305 H         1 <0>         0.1074
     47 H10         3.1202   -4.6512    0.8514 H         1 <0>         0.0948
     48 H11         6.9345   -4.0755   -0.5443 H         1 <0>         0.0929
     49 H12         6.8898   -4.4531    1.2058 H         1 <0>         0.0897
     50 H13         5.7425   -7.2223   -1.7991 H         1 <0>         0.0980
     51 H14         5.4441   -5.4884   -2.0731 H         1 <0>         0.1183
     52 H15         7.5778   -6.2186   -3.1229 H         1 <0>         0.1407
     53 H16         7.8632   -5.0258   -1.8333 H         1 <0>         0.1346
     54 H17         8.0499   -7.9354   -1.5077 H         1 <0>         0.4277
     55 H18         9.0960   -7.3907    0.5868 H         1 <0>         0.1402
     56 H19         8.7167   -5.6846    0.2516 H         1 <0>         0.1339
     57 H20         6.9975   -6.6869    1.7222 H         1 <0>         0.1285
     58 H21         6.6860   -7.9505    0.5070 H         1 <0>         0.0977
     59 H22         4.0994   -8.7829    0.2518 H         1 <0>         0.4027
     60 H23         5.2557   -9.6615    2.6742 H         1 <0>         0.0825
     61 H24         3.5257   -9.3531    2.9578 H         1 <0>         0.0859
     62 H25         1.8274  -10.6803    1.8400 H         1 <0>         0.1421
     63 H26         1.2682  -12.8441    0.8084 H         1 <0>         0.1459
     64 H27         5.4231  -13.5929    0.1445 H         1 <0>         0.1374
     65 H28         5.9734  -11.4235    1.1691 H         1 <0>         0.1318
     66 H29         9.3335   -6.9259   -1.7142 H         1 <0>         0.4350
@<TRIPOS>BOND
     1    1    6 ar
     2    1    2 ar
     3    1   40 1
     4    2    3 ar
     5    2   41 1
     6    3    4 ar
     7    3   42 1
     8    4   11 1
     9    4    5 ar
    10    5    6 ar
    11    5    7 1
    12    6   43 1
    13    7    8 1
    14    8    9 1
    15    8   44 1
    16    8   45 1
    17    9   10 1
    18    9   11 1
    19    9   12 1
    20   12   13 2
    21   12   14 am
    22   14   19 1
    23   14   15 1
    24   15   16 1
    25   15   46 1
    26   15   47 1
    27   16   17 1
    28   16   18 1
    29   16   25 1
    30   18   24 1
    31   18   19 1
    32   18   20 1
    33   19   48 1
    34   19   49 1
    35   20   21 1
    36   20   50 1
    37   20   51 1
    38   21   22 1
    39   21   52 1
    40   21   53 1
    41   22   23 1
    42   22   54 1
    43   22   66 1
    44   23   24 1
    45   23   55 1
    46   23   56 1
    47   24   57 1
    48   24   58 1
    49   25   26 2
    50   25   27 am
    51   27   28 1
    52   27   59 1
    53   28   29 1
    54   28   60 1
    55   28   61 1
    56   29   34 ar
    57   29   30 ar
    58   30   31 ar
    59   30   62 1
    60   31   32 ar
    61   31   63 1
    62   32   33 ar
    63   32   35 1
    64   33   34 ar
    65   33   64 1
    66   34   65 1
    67   35   36 1
    68   36   37 1
    69   36   38 1
    70   36   39 1
@<TRIPOS>MOLECULE
ZINC39665419
   72    76     0     0     0
SMALL
USER_CHARGES

@<TRIPOS>ATOM
      1 C1          1.2198    1.7471   -0.2204 C.3       1 <0>        -0.1080
      2 C2          1.7201    0.3623    0.1006 C.2       1 <0>         0.1429
      3 C3          0.9430   -0.7241    0.3762 C.2       1 <0>        -0.3078
      4 C4          1.8581   -1.8479    0.6263 C.2       1 <0>         0.1810
      5 N1          3.0749   -1.3850    0.4908 N.2       1 <0>        -0.2927
      6 O1          3.0005   -0.0131    0.1583 O.3       1 <0>        -0.0673
      7 C5          1.4754   -3.2399    0.9669 C.ar      1 <0>        -0.0446
      8 C6          0.3515   -3.4835    1.7542 C.ar      1 <0>        -0.0949
      9 C7         -0.0002   -4.7807    2.0676 C.ar      1 <0>        -0.1205
     10 C8          0.7607   -5.8380    1.6023 C.ar      1 <0>        -0.0954
     11 C9          1.8775   -5.6021    0.8210 C.ar      1 <0>        -0.1143
     12 C10         2.2351   -4.3093    0.4962 C.ar      1 <0>        -0.0771
     13 C11        -0.5288   -0.7642    0.4157 C.2       1 <0>         0.6367
     14 O2         -1.1600   -0.9400   -0.6089 O.2       1 <0>        -0.5138
     15 N2         -1.1760   -0.6061    1.5872 N.am      1 <0>        -0.6130
     16 C12        -0.5920   -0.2908    2.9121 C.3       1 <0>         0.1136
     17 C13        -1.5905    0.6987    3.5535 C.3       1 <0>        -0.1141
     18 H1         -1.6785    0.5092    4.6232 H         1 <0>         0.1196
     19 C14        -2.9281    0.4186    2.8482 C.3       1 <0>        -0.0727
     20 C15        -2.6338   -0.7019    1.8402 C.3       1 <0>         0.1057
     21 C16        -3.9732   -0.0408    3.8602 C.3       1 <0>        -0.1344
     22 C17        -5.3096   -0.2570    3.1446 C.3       1 <0>        -0.0104
     23 N3         -5.7340    0.9954    2.5074 N.4       1 <0>        -0.5047
     24 C18        -4.7696    1.3812    1.4702 C.3       1 <0>        -0.0096
     25 C19        -3.4103    1.6668    2.1151 C.3       1 <0>        -0.1468
     26 C20        -1.1524    2.1195    3.3076 C.2       1 <0>         0.5207
     27 O3         -0.4905    2.3891    2.3278 O.2       1 <0>        -0.5198
     28 N4         -1.4962    3.0907    4.1766 N.am      1 <0>        -0.7247
     29 C21        -1.0704    4.4719    3.9376 C.3       1 <0>         0.1221
     30 C22        -1.5891    5.3677    5.0642 C.3       1 <0>         0.0737
     31 H2         -2.6699    5.2548    5.1498 H         1 <0>         0.0773
     32 C23        -1.2520    6.8270    4.7517 C.3       1 <0>        -0.1830
     33 O4         -0.9716    4.9895    6.2962 O.3       1 <0>        -0.3078
     34 C24        -1.6480    5.2774    7.4392 C.ar      1 <0>         0.1235
     35 C25        -2.8254    6.0091    7.3844 C.ar      1 <0>        -0.2131
     36 C26        -3.5113    6.3000    8.5477 C.ar      1 <0>        -0.0805
     37 C27        -3.0251    5.8629    9.7660 C.ar      1 <0>        -0.1528
     38 C28        -1.8516    5.1339    9.8234 C.ar      1 <0>        -0.0772
     39 C29        -1.1653    4.8351    8.6623 C.ar      1 <0>        -0.1503
     40 H3          2.0672    2.4249   -0.3232 H         1 <0>         0.0918
     41 H4          0.6583    1.7232   -1.1544 H         1 <0>         0.0985
     42 H5          0.5719    2.0949    0.5842 H         1 <0>         0.1230
     43 H6         -0.2430   -2.6587    2.1186 H         1 <0>         0.1240
     44 H7         -0.8710   -4.9707    2.6776 H         1 <0>         0.1291
     45 H8          0.4820   -6.8516    1.8504 H         1 <0>         0.1319
     46 H9          2.4684   -6.4314    0.4610 H         1 <0>         0.1353
     47 H10         3.1044   -4.1265   -0.1180 H         1 <0>         0.1324
     48 H11        -0.5111   -1.1943    3.5165 H         1 <0>         0.0912
     49 H12         0.3851    0.1778    2.7949 H         1 <0>         0.0978
     50 H13        -3.1915   -0.5391    0.9180 H         1 <0>         0.0917
     51 H14        -2.8824   -1.6723    2.2700 H         1 <0>         0.0877
     52 H15        -3.6501   -0.9758    4.3180 H         1 <0>         0.1231
     53 H16        -4.0923    0.7204    4.6313 H         1 <0>         0.0977
     54 H17        -5.1937   -1.0298    2.3847 H         1 <0>         0.1338
     55 H18        -6.0625   -0.5696    3.8681 H         1 <0>         0.1406
     56 H19        -6.6430    0.8670    2.0886 H         1 <0>         0.4347
     57 H20        -4.6664    0.5694    0.7502 H         1 <0>         0.1354
     58 H21        -5.1244    2.2764    0.9594 H         1 <0>         0.1387
     59 H22        -3.5093    2.4894    2.8235 H         1 <0>         0.0950
     60 H23        -2.6903    1.9360    1.3424 H         1 <0>         0.1241
     61 H24        -2.0257    2.8751    4.9603 H         1 <0>         0.4018
     62 H25         0.0184    4.5167    3.9098 H         1 <0>         0.0871
     63 H26        -1.4727    4.8164    2.9850 H         1 <0>         0.0923
     64 H27        -0.1713    6.9400    4.6661 H         1 <0>         0.0761
     65 H28        -1.7230    7.1155    3.8120 H         1 <0>         0.0770
     66 H29        -1.6216    7.4652    5.5543 H         1 <0>         0.0731
     67 H30        -3.2052    6.3513    6.4330 H         1 <0>         0.1267
     68 H31        -4.4279    6.8696    8.5055 H         1 <0>         0.1256
     69 H32        -3.5626    6.0917   10.6744 H         1 <0>         0.1267
     70 H33        -1.4737    4.7939   10.7763 H         1 <0>         0.1322
     71 H34        -0.2511    4.2618    8.7073 H         1 <0>         0.1308
     72 H35        -5.7871    1.7241    3.2033 H         1 <0>         0.4272
@<TRIPOS>BOND
     1    1    2 1
     2    1   40 1
     3    1   41 1
     4    1   42 1
     5    2    6 1
     6    2    3 2
     7    3    4 1
     8    3   13 1
     9    4    5 2
    10    4    7 1
    11    5    6 1
    12    7   12 ar
    13    7    8 ar
    14    8    9 ar
    15    8   43 1
    16    9   10 ar
    17    9   44 1
    18   10   11 ar
    19   10   45 1
    20   11   12 ar
    21   11   46 1
    22   12   47 1
    23   13   14 2
    24   13   15 am
    25   15   20 1
    26   15   16 1
    27   16   17 1
    28   16   48 1
    29   16   49 1
    30   17   18 1
    31   17   19 1
    32   17   26 1
    33   19   25 1
    34   19   20 1
    35   19   21 1
    36   20   50 1
    37   20   51 1
    38   21   22 1
    39   21   52 1
    40   21   53 1
    41   22   23 1
    42   22   54 1
    43   22   55 1
    44   23   24 1
    45   23   56 1
    46   23   72 1
    47   24   25 1
    48   24   57 1
    49   24   58 1
    50   25   59 1
    51   25   60 1
    52   26   27 2
    53   26   28 am
    54   28   29 1
    55   28   61 1
    56   29   30 1
    57   29   62 1
    58   29   63 1
    59   30   31 1
    60   30   32 1
    61   30   33 1
    62   32   64 1
    63   32   65 1
    64   32   66 1
    65   33   34 1
    66   34   39 ar
    67   34   35 ar
    68   35   36 ar
    69   35   67 1
    70   36   37 ar
    71   36   68 1
    72   37   38 ar
    73   37   69 1
    74   38   39 ar
    75   38   70 1
    76   39   71 1
@<TRIPOS>MOLECULE
ZINC39675251
   77    80     0     0     0
SMALL
USER_CHARGES

@<TRIPOS>ATOM
      1 C1         -0.5493   -0.8412   -0.6539 C.3       1 <0>        -0.1690
      2 C2          0.9436   -0.9698   -0.9631 C.3       1 <0>         0.1416
      3 H1          1.3413    0.0047   -1.2461 H         1 <0>         0.0930
      4 C3          1.1425   -1.9562   -2.1157 C.3       1 <0>        -0.1271
      5 C4          2.6210   -1.9911   -2.5076 C.3       1 <0>        -0.0662
      6 C5          2.8170   -2.9627   -3.6429 C.ar      1 <0>        -0.1330
      7 C6          3.0891   -4.2915   -3.3749 C.ar      1 <0>        -0.0817
      8 C7          3.2696   -5.1840   -4.4138 C.ar      1 <0>        -0.1513
      9 C8          3.1771   -4.7460   -5.7269 C.ar      1 <0>         0.1315
     10 C9          2.9035   -3.4122   -5.9931 C.ar      1 <0>        -0.2031
     11 C10         2.7187   -2.5248   -4.9507 C.ar      1 <0>        -0.0728
     12 O1          3.3546   -5.6219   -6.7506 O.3       1 <0>        -0.3164
     13 C11         3.2451   -5.1008   -8.0767 C.3       1 <0>         0.0250
     14 N1          1.6480   -1.4585    0.2249 N.am      1 <0>        -0.7242
     15 C12         2.0513   -0.5905    1.1738 C.2       1 <0>         0.5212
     16 O2          1.8311    0.5951    1.0442 O.2       1 <0>        -0.5175
     17 C13         2.7759   -1.0932    2.3958 C.3       1 <0>        -0.1141
     18 H2          2.3647   -2.0517    2.7125 H         1 <0>         0.1123
     19 C14         2.6785   -0.0610    3.5415 C.3       1 <0>         0.1167
     20 N2          3.9987   -0.1205    4.2121 N.am      1 <0>        -0.6231
     21 C15         4.9700   -0.2667    3.1017 C.3       1 <0>         0.1004
     22 C16         4.2812   -1.2246    2.1095 C.3       1 <0>        -0.0725
     23 C17         4.5849   -0.8049    0.6745 C.3       1 <0>        -0.1507
     24 C18         6.0778   -0.9997    0.3955 C.3       1 <0>        -0.0081
     25 N3          6.4362   -2.4083    0.6008 N.4       1 <0>        -0.5051
     26 C19         6.2287   -2.7780    2.0061 C.3       1 <0>        -0.0115
     27 C20         4.7421   -2.6584    2.3532 C.3       1 <0>        -0.1350
     28 C21         4.2577   -0.0565    5.5332 C.2       1 <0>         0.5924
     29 O3          3.3411   -0.0352    6.3323 O.2       1 <0>        -0.5018
     30 C22         5.6510   -0.0125    6.0092 C.ar      1 <0>        -0.2132
     31 C23         6.6250    0.6646    5.2684 C.ar      1 <0>        -0.0162
     32 C24         7.9248    0.7039    5.7164 C.ar      1 <0>        -0.2558
     33 C25         8.2759    0.0715    6.9055 C.ar      1 <0>         0.2003
     34 C26         7.3181   -0.6031    7.6478 C.ar      1 <0>        -0.2540
     35 C27         6.0052   -0.6446    7.2106 C.ar      1 <0>         0.2266
     36 O4          5.0658   -1.2992    7.9381 O.3       1 <0>        -0.2871
     37 C28         5.4997   -1.9191    9.1504 C.3       1 <0>         0.0190
     38 O5          9.5608    0.1148    7.3402 O.3       1 <0>        -0.3079
     39 C29        10.4969    0.8259    6.5278 C.3       1 <0>         0.0240
     40 H3         -0.6910   -0.1385    0.1672 H         1 <0>         0.0637
     41 H4         -1.0734   -0.4776   -1.5378 H         1 <0>         0.0705
     42 H5         -0.9470   -1.8157   -0.3708 H         1 <0>         0.0595
     43 H6          0.8263   -2.9508   -1.8014 H         1 <0>         0.0733
     44 H7          0.5470   -1.6393   -2.9719 H         1 <0>         0.0866
     45 H8          2.9372   -0.9965   -2.8219 H         1 <0>         0.0728
     46 H9          3.2165   -2.3080   -1.6514 H         1 <0>         0.0586
     47 H10         3.1610   -4.6320   -2.3525 H         1 <0>         0.1228
     48 H11         3.4828   -6.2217   -4.2039 H         1 <0>         0.1312
     49 H12         2.8310   -3.0688   -7.0145 H         1 <0>         0.1308
     50 H13         2.5013   -1.4873   -5.1574 H         1 <0>         0.1253
     51 H14         3.9936   -4.3223   -8.2242 H         1 <0>         0.0574
     52 H15         3.4081   -5.9026   -8.7968 H         1 <0>         0.1053
     53 H16         2.2500   -4.6799   -8.2206 H         1 <0>         0.0586
     54 H17         1.8242   -2.4067    0.3285 H         1 <0>         0.3977
     55 H18         2.5007    0.9367    3.1401 H         1 <0>         0.0989
     56 H19         1.8862   -0.3386    4.2368 H         1 <0>         0.0961
     57 H20         5.1584    0.6985    2.6315 H         1 <0>         0.0852
     58 H21         5.9009   -0.7019    3.4653 H         1 <0>         0.0878
     59 H22         4.0030   -1.4170   -0.0146 H         1 <0>         0.1012
     60 H23         4.3234    0.2446    0.5394 H         1 <0>         0.1246
     61 H24         6.2947   -0.7162   -0.6344 H         1 <0>         0.1394
     62 H25         6.6586   -0.3747    1.0738 H         1 <0>         0.1328
     63 H26         5.8588   -2.9901    0.0125 H         1 <0>         0.4279
     64 H27         6.5569   -3.8054    2.1635 H         1 <0>         0.1399
     65 H28         6.8058   -2.1106    2.6461 H         1 <0>         0.1327
     66 H29         4.5914   -2.9158    3.4016 H         1 <0>         0.1195
     67 H30         4.1660   -3.3376    1.7249 H         1 <0>         0.0969
     68 H31         6.3567    1.1560    4.3448 H         1 <0>         0.1352
     69 H32         8.6759    1.2272    5.1432 H         1 <0>         0.1376
     70 H33         7.5958   -1.0926    8.5696 H         1 <0>         0.1475
     71 H34         4.6523   -2.4061    9.6329 H         1 <0>         0.1091
     72 H35         6.2654   -2.6614    8.9251 H         1 <0>         0.0608
     73 H36         5.9123   -1.1625    9.8178 H         1 <0>         0.0641
     74 H37        10.5377    0.3714    5.5379 H         1 <0>         0.0583
     75 H38        10.1831    1.8659    6.4374 H         1 <0>         0.0626
     76 H39        11.4839    0.7829    6.9883 H         1 <0>         0.1080
     77 H40         7.4058   -2.5461    0.3577 H         1 <0>         0.4339
@<TRIPOS>BOND
     1    1    2 1
     2    1   40 1
     3    1   41 1
     4    1   42 1
     5    2    3 1
     6    2    4 1
     7    2   14 1
     8    4    5 1
     9    4   43 1
    10    4   44 1
    11    5    6 1
    12    5   45 1
    13    5   46 1
    14    6   11 ar
    15    6    7 ar
    16    7    8 ar
    17    7   47 1
    18    8    9 ar
    19    8   48 1
    20    9   10 ar
    21    9   12 1
    22   10   11 ar
    23   10   49 1
    24   11   50 1
    25   12   13 1
    26   13   51 1
    27   13   52 1
    28   13   53 1
    29   14   15 am
    30   14   54 1
    31   15   16 2
    32   15   17 1
    33   17   18 1
    34   17   22 1
    35   17   19 1
    36   19   20 1
    37   19   55 1
    38   19   56 1
    39   20   21 1
    40   20   28 am
    41   21   22 1
    42   21   57 1
    43   21   58 1
    44   22   27 1
    45   22   23 1
    46   23   24 1
    47   23   59 1
    48   23   60 1
    49   24   25 1
    50   24   61 1
    51   24   62 1
    52   25   26 1
    53   25   63 1
    54   25   77 1
    55   26   27 1
    56   26   64 1
    57   26   65 1
    58   27   66 1
    59   27   67 1
    60   28   29 2
    61   28   30 1
    62   30   35 ar
    63   30   31 ar
    64   31   32 ar
    65   31   68 1
    66   32   33 ar
    67   32   69 1
    68   33   34 ar
    69   33   38 1
    70   34   35 ar
    71   34   70 1
    72   35   36 1
    73   36   37 1
    74   37   71 1
    75   37   72 1
    76   37   73 1
    77   38   39 1
    78   39   74 1
    79   39   75 1
    80   39   76 1
@<TRIPOS>MOLECULE
ZINC39691345
   81    85     0     0     0
SMALL
USER_CHARGES

@<TRIPOS>ATOM
      1 C1          1.0662   -0.3284   -1.4460 C.3       1 <0>        -0.1483
      2 C2          0.3572    0.4597   -0.3427 C.3       1 <0>        -0.0718
      3 C3          1.1103    0.2800    0.9769 C.3       1 <0>        -0.0960
      4 C4          0.4014    1.0681    2.0801 C.3       1 <0>        -0.1298
      5 C5          0.3713    2.5519    1.7081 C.3       1 <0>        -0.1229
      6 C6         -0.3818    2.7316    0.3885 C.3       1 <0>        -0.1202
      7 C7          0.3271    1.9435   -0.7148 C.3       1 <0>        -0.1164
      8 C8         -1.0532   -0.0484   -0.1895 C.2       1 <0>         0.5638
      9 O1         -1.3810   -0.6317    0.8221 O.2       1 <0>        -0.5276
     10 N1         -1.9503    0.1453   -1.1765 N.am      1 <0>        -0.6160
     11 C9         -1.7131    0.7293   -2.5177 C.3       1 <0>         0.1053
     12 C10        -2.5787   -0.1226   -3.4730 C.3       1 <0>        -0.1160
     13 H1         -3.0145    0.5042   -4.2509 H         1 <0>         0.1167
     14 C11        -3.6828   -0.7136   -2.5804 C.3       1 <0>        -0.0714
     15 C12        -3.3958   -0.1837   -1.1680 C.3       1 <0>         0.1052
     16 C13        -3.6110   -2.2375   -2.5901 C.3       1 <0>        -0.1455
     17 C14        -4.7534   -2.8030   -1.7416 C.3       1 <0>        -0.0092
     18 N2         -6.0396   -2.3501   -2.2852 N.4       1 <0>        -0.5047
     19 C15        -6.1384   -0.8889   -2.1868 C.3       1 <0>        -0.0098
     20 C16        -5.0544   -0.2424   -3.0539 C.3       1 <0>        -0.1343
     21 C17        -1.7531   -1.2230   -4.0884 C.2       1 <0>         0.5167
     22 O2         -0.8649   -1.7450   -3.4485 O.2       1 <0>        -0.5108
     23 N3         -2.0018   -1.6270   -5.3499 N.am      1 <0>        -0.7262
     24 C18        -1.1993   -2.6967   -5.9481 C.3       1 <0>         0.1067
     25 C19        -1.6835   -2.9602   -7.3754 C.3       1 <0>         0.1105
     26 N4         -0.8810   -4.0299   -7.9736 N.am      1 <0>        -0.7353
     27 C20        -1.1297   -4.4339   -9.2351 C.2       1 <0>         0.5182
     28 O3         -2.0179   -3.9119   -9.8750 O.2       1 <0>        -0.5182
     29 C21        -0.3042   -5.5343   -9.8505 C.3       1 <0>        -0.1027
     30 C22        -0.7811   -5.7939  -11.2563 C.ar      1 <0>        -0.0631
     31 C23        -1.6903   -6.7774  -11.4996 C.ar      1 <0>        -0.0997
     32 C24        -2.1429   -7.0320  -12.7926 C.ar      1 <0>        -0.1172
     33 C25        -1.6887   -6.3050  -13.8500 C.ar      1 <0>        -0.0990
     34 C26        -0.7498   -5.2815  -13.6379 C.ar      1 <0>        -0.0523
     35 C27        -0.2941   -5.0183  -12.3218 C.ar      1 <0>        -0.0328
     36 C28         0.6407   -3.9905  -12.1090 C.ar      1 <0>        -0.1117
     37 C29         1.0902   -3.2599  -13.1654 C.ar      1 <0>        -0.1104
     38 C30         0.6372   -3.5144  -14.4588 C.ar      1 <0>        -0.1178
     39 C31        -0.2575   -4.5101  -14.7047 C.ar      1 <0>        -0.1017
     40 H2          2.0371    0.1236   -1.6488 H         1 <0>         0.0671
     41 H3          1.2061   -1.3600   -1.1231 H         1 <0>         0.0623
     42 H4          0.4605   -0.3102   -2.3521 H         1 <0>         0.0757
     43 H5          1.1318   -0.7771    1.2419 H         1 <0>         0.0697
     44 H6          2.1305    0.6475    0.8660 H         1 <0>         0.0721
     45 H7         -0.6188    0.7005    2.1910 H         1 <0>         0.0783
     46 H8          0.9379    0.9400    3.0203 H         1 <0>         0.0639
     47 H9         -0.1338    3.1133    2.4941 H         1 <0>         0.0627
     48 H10         1.3914    2.9194    1.5973 H         1 <0>         0.0642
     49 H11        -1.4020    2.3641    0.4994 H         1 <0>         0.0550
     50 H12        -0.4033    3.7887    0.1235 H         1 <0>         0.0672
     51 H13         1.3473    2.3111   -0.8256 H         1 <0>         0.0789
     52 H14        -0.2094    2.0716   -1.6549 H         1 <0>         0.0677
     53 H15        -2.0341    1.7707   -2.5409 H         1 <0>         0.0898
     54 H16        -0.6597    0.6493   -2.7861 H         1 <0>         0.1074
     55 H17        -3.6068   -0.9521   -0.4242 H         1 <0>         0.0874
     56 H18        -3.9883    0.7099   -0.9718 H         1 <0>         0.0824
     57 H19        -3.7045   -2.5997   -3.6139 H         1 <0>         0.0923
     58 H20        -2.6558   -2.5595   -2.1754 H         1 <0>         0.1259
     59 H21        -4.7147   -3.8921   -1.7600 H         1 <0>         0.1377
     60 H22        -4.6501   -2.4535   -0.7143 H         1 <0>         0.1345
     61 H23        -6.1100   -2.6261   -3.2531 H         1 <0>         0.4274
     62 H24        -7.1204   -0.5672   -2.5334 H         1 <0>         0.1400
     63 H25        -6.0024   -0.5848   -1.1489 H         1 <0>         0.1328
     64 H26        -5.1169    0.8423   -2.9660 H         1 <0>         0.1219
     65 H27        -5.1996   -0.5327   -4.0944 H         1 <0>         0.0973
     66 H28        -2.7122   -1.2095   -5.8617 H         1 <0>         0.4033
     67 H29        -0.1517   -2.3964   -5.9695 H         1 <0>         0.0809
     68 H30        -1.3048   -3.6051   -5.3551 H         1 <0>         0.0772
     69 H31        -2.7311   -3.2605   -7.3540 H         1 <0>         0.0712
     70 H32        -1.5780   -2.0518   -7.9684 H         1 <0>         0.0756
     71 H33        -0.1706   -4.4475   -7.4618 H         1 <0>         0.4050
     72 H34         0.7434   -5.2340   -9.8719 H         1 <0>         0.1078
     73 H35        -0.4097   -6.4428   -9.2574 H         1 <0>         0.1077
     74 H36        -2.0661   -7.3694  -10.6783 H         1 <0>         0.1204
     75 H37        -2.8645   -7.8182  -12.9584 H         1 <0>         0.1253
     76 H38        -2.0479   -6.5140  -14.8468 H         1 <0>         0.1290
     77 H39         1.0002   -3.7815  -11.1122 H         1 <0>         0.1192
     78 H40         1.8085   -2.4707  -12.9991 H         1 <0>         0.1228
     79 H41         1.0097   -2.9194  -15.2795 H         1 <0>         0.1250
     80 H42        -0.5990   -4.6963  -15.7122 H         1 <0>         0.1290
     81 H43        -6.7918   -2.7727   -1.7621 H         1 <0>         0.4342
@<TRIPOS>BOND
     1    1    2 1
     2    1   40 1
     3    1   41 1
     4    1   42 1
     5    2    7 1
     6    2    3 1
     7    2    8 1
     8    3    4 1
     9    3   43 1
    10    3   44 1
    11    4    5 1
    12    4   45 1
    13    4   46 1
    14    5    6 1
    15    5   47 1
    16    5   48 1
    17    6    7 1
    18    6   49 1
    19    6   50 1
    20    7   51 1
    21    7   52 1
    22    8    9 2
    23    8   10 am
    24   10   15 1
    25   10   11 1
    26   11   12 1
    27   11   53 1
    28   11   54 1
    29   12   13 1
    30   12   14 1
    31   12   21 1
    32   14   20 1
    33   14   15 1
    34   14   16 1
    35   15   55 1
    36   15   56 1
    37   16   17 1
    38   16   57 1
    39   16   58 1
    40   17   18 1
    41   17   59 1
    42   17   60 1
    43   18   19 1
    44   18   61 1
    45   18   81 1
    46   19   20 1
    47   19   62 1
    48   19   63 1
    49   20   64 1
    50   20   65 1
    51   21   22 2
    52   21   23 am
    53   23   24 1
    54   23   66 1
    55   24   25 1
    56   24   67 1
    57   24   68 1
    58   25   26 1
    59   25   69 1
    60   25   70 1
    61   26   27 am
    62   26   71 1
    63   27   28 2
    64   27   29 1
    65   29   30 1
    66   29   72 1
    67   29   73 1
    68   30   35 ar
    69   30   31 ar
    70   31   32 ar
    71   31   74 1
    72   32   33 ar
    73   32   75 1
    74   33   34 ar
    75   33   76 1
    76   34   39 ar
    77   34   35 ar
    78   35   36 ar
    79   36   37 ar
    80   36   77 1
    81   37   38 ar
    82   37   78 1
    83   38   39 ar
    84   38   79 1
    85   39   80 1
@<TRIPOS>MOLECULE
ZINC03522810
   52    55     0     0     0
SMALL
USER_CHARGES
2-(methylBLAHyl)sulfanyl-N-(4-sulfamoylphenyl)-propanamide
@<TRIPOS>ATOM
      1 C1          6.7725    5.0690   -0.1282 C.3       1 <0>        -0.1480
      2 C2          5.6627    4.0543   -0.4100 C.3       1 <0>        -0.0871
      3 H1          5.6575    3.8033   -1.4707 H         1 <0>         0.0790
      4 C3          5.9029    2.7874    0.4165 C.3       1 <0>        -0.1147
      5 C4          4.9488    1.6826   -0.0385 C.3       1 <0>        -0.0678
      6 C5          3.5217    2.2233   -0.0143 C.2       1 <0>        -0.0916
      7 C6          3.2883    3.5514   -0.0028 C.2       1 <0>        -0.1279
      8 S1          1.5228    3.7106    0.0263 S.3       1 <0>         0.1234
      9 C7          1.0992    1.9882    0.0226 C.ar      1 <0>         0.1291
     10 C8          2.3521    1.3435   -0.0014 C.ar      1 <0>        -0.1662
     11 C9          2.3073   -0.0788   -0.0093 C.ar      1 <0>         0.1929
     12 N1          1.1307   -0.6861    0.0069 N.ar      1 <0>        -0.5354
     13 C10        -0.0066   -0.0152    0.0300 C.ar      1 <0>         0.3291
     14 N2         -0.0281    1.3039    0.0375 N.ar      1 <0>        -0.4826
     15 S2          3.7972   -1.0191   -0.0408 S.3       1 <0>         0.0671
     16 C11         3.1117   -2.6942   -0.0398 C.3       1 <0>        -0.1284
     17 H2          2.4143   -2.8019   -0.8706 H         1 <0>         0.1269
     18 C12         2.3768   -2.9438    1.2787 C.3       1 <0>        -0.1433
     19 C13         4.2291   -3.6943   -0.1892 C.2       1 <0>         0.5374
     20 O1          5.3541   -3.4031    0.1582 O.2       1 <0>        -0.4945
     21 N3          3.9784   -4.9123   -0.7089 N.am      1 <0>        -0.6692
     22 C14         5.0308   -5.8056   -0.9374 C.ar      1 <0>         0.2047
     23 C15         4.9918   -6.6620   -2.0300 C.ar      1 <0>        -0.1648
     24 C16         6.0347   -7.5389   -2.2557 C.ar      1 <0>         0.0029
     25 C17         7.1117   -7.5724   -1.3892 C.ar      1 <0>        -0.6915
     26 C18         7.1510   -6.7249   -0.2972 C.ar      1 <0>         0.0029
     27 C19         6.1139   -5.8417   -0.0691 C.ar      1 <0>        -0.1440
     28 S3          8.4373   -8.6968   -1.6773 S.o2      1 <0>         2.7029
     29 O2          8.4193   -8.9986   -3.0658 O.2       1 <0>        -0.9631
     30 O3          9.5796   -8.1523   -1.0308 O.2       1 <0>        -0.9619
     31 N4          8.0687  -10.1022   -0.8827 N.pl3     1 <0>        -1.2501
     32 C20         4.3055    4.6517   -0.0122 C.3       1 <0>        -0.0387
     33 H3          7.7364    4.6376   -0.3984 H         1 <0>         0.0612
     34 H4          6.5996    5.9696   -0.7173 H         1 <0>         0.0590
     35 H5          6.7723    5.3227    0.9319 H         1 <0>         0.0584
     36 H6          5.7296    3.0043    1.4705 H         1 <0>         0.0695
     37 H7          6.9323    2.4559    0.2804 H         1 <0>         0.0769
     38 H8          5.0281    0.8306    0.6367 H         1 <0>         0.0871
     39 H9          5.2050    1.3731   -1.0518 H         1 <0>         0.0862
     40 H10        -0.9399   -0.5586    0.0427 H         1 <0>         0.2116
     41 H11         3.0742   -2.8361    2.1094 H         1 <0>         0.0703
     42 H12         1.5686   -2.2205    1.3867 H         1 <0>         0.0944
     43 H13         1.9640   -3.9526    1.2793 H         1 <0>         0.0707
     44 H14         3.0683   -5.1697   -0.9244 H         1 <0>         0.4188
     45 H15         4.1489   -6.6392   -2.7048 H         1 <0>         0.1397
     46 H16         6.0070   -8.2021   -3.1077 H         1 <0>         0.1493
     47 H17         7.9936   -6.7534    0.3778 H         1 <0>         0.1486
     48 H18         6.1455   -5.1795    0.7836 H         1 <0>         0.1511
     49 H19         7.2413  -10.1733   -0.3815 H         1 <0>         0.4166
     50 H20         8.6802  -10.8544   -0.9186 H         1 <0>         0.4216
     51 H21         4.3764    5.0944    0.9814 H         1 <0>         0.0923
     52 H22         4.0144    5.4145   -0.7344 H         1 <0>         0.0890
@<TRIPOS>BOND
     1    1    2 1
     2    1   33 1
     3    1   34 1
     4    1   35 1
     5    2    3 1
     6    2   32 1
     7    2    4 1
     8    4    5 1
     9    4   36 1
    10    4   37 1
    11    5    6 1
    12    5   38 1
    13    5   39 1
    14    6   10 1
    15    6    7 2
    16    7    8 1
    17    7   32 1
    18    8    9 1
    19    9   14 ar
    20    9   10 ar
    21   10   11 ar
    22   11   12 ar
    23   11   15 1
    24   12   13 ar
    25   13   14 ar
    26   13   40 1
    27   15   16 1
    28   16   17 1
    29   16   18 1
    30   16   19 1
    31   18   41 1
    32   18   42 1
    33   18   43 1
    34   19   20 2
    35   19   21 am
    36   21   22 1
    37   21   44 1
    38   22   27 ar
    39   22   23 ar
    40   23   24 ar
    41   23   45 1
    42   24   25 ar
    43   24   46 1
    44   25   26 ar
    45   25   28 1
    46   26   27 ar
    47   26   47 1
    48   27   48 1
    49   28   29 2
    50   28   30 2
    51   28   31 1
    52   31   49 1
    53   31   50 1
    54   32   51 1
    55   32   52 1
@<TRIPOS>MOLECULE
ZINC13134113
   47    50     0     0     0
SMALL
USER_CHARGES
2-[[4-amino-5-[(2-fluorophenyl)methyl]-1,2,4-triazol-3-yl]sulfanyl]-N-[4-(4-fluorophenyl)thiazol-2-yl]acetamide
@<TRIPOS>ATOM
      1 C1         -9.0973    1.8151   -3.2495 C.ar      1 <0>        -0.1274
      2 C2         -9.0174    2.9947   -3.9664 C.ar      1 <0>        -0.0829
      3 C3         -8.4720    4.1225   -3.3834 C.ar      1 <0>        -0.1528
      4 C4         -8.0093    4.0722   -2.0792 C.ar      1 <0>         0.1216
      5 C5         -8.0854    2.8894   -1.3640 C.ar      1 <0>        -0.1332
      6 C6         -8.6318    1.7626   -1.9490 C.ar      1 <0>        -0.0882
      7 C7         -7.5785    2.8319    0.0540 C.3       1 <0>         0.0089
      8 C8         -6.0792    2.6796    0.0457 C.2       1 <0>         0.1585
      9 N1         -5.2049    3.6457    0.0463 N.2       1 <0>        -0.2520
     10 N2         -4.0138    3.1629    0.0378 N.2       1 <0>        -0.2888
     11 C9         -4.0644    1.8510    0.0314 C.2       1 <0>         0.1651
     12 N3         -5.3844    1.5017    0.0303 N.pl3     1 <0>        -0.3021
     13 N4         -5.9032    0.2381    0.0193 N.3       1 <0>        -0.5845
     14 S1         -2.6892    0.7495    0.0189 S.3       1 <0>         0.1241
     15 C10        -1.3296    1.9443    0.0189 C.3       1 <0>        -0.1567
     16 C11        -0.0144    1.2086    0.0087 C.2       1 <0>         0.5396
     17 O1          0.0021   -0.0041    0.0020 O.2       1 <0>        -0.4811
     18 N5          1.1435    1.8983    0.0013 N.am      1 <0>        -0.6020
     19 C12         2.3561    1.2200   -0.0139 C.2       1 <0>         0.3145
     20 N6          3.5840    1.7043   -0.0230 N.2       1 <0>        -0.5281
     21 C13         4.6391    0.9036   -0.0367 C.2       1 <0>         0.1179
     22 C14         4.4533   -0.4506   -0.0414 C.2       1 <0>        -0.2357
     23 S2          2.6676   -0.5401   -0.0184 S.3       1 <0>         0.1300
     24 C15         6.0095    1.4712   -0.0462 C.ar      1 <0>        -0.0354
     25 C16         7.1167    0.6246   -0.0543 C.ar      1 <0>        -0.0745
     26 C17         8.3895    1.1571   -0.0671 C.ar      1 <0>        -0.1530
     27 C18         8.5680    2.5310   -0.0627 C.ar      1 <0>         0.1042
     28 C19         7.4705    3.3763   -0.0498 C.ar      1 <0>        -0.1558
     29 C20         6.1939    2.8528   -0.0414 C.ar      1 <0>        -0.0573
     30 F1          9.8162    3.0479   -0.0705 F         1 <0>        -0.1378
     31 F2         -7.4806    5.1757   -1.5064 F         1 <0>        -0.1240
     32 H1         -9.5240    0.9342   -3.7058 H         1 <0>         0.1340
     33 H2         -9.3817    3.0346   -4.9823 H         1 <0>         0.1363
     34 H3         -8.4101    5.0439   -3.9435 H         1 <0>         0.1396
     35 H4         -8.6947    0.8407   -1.3900 H         1 <0>         0.1289
     36 H5         -8.0273    1.9809    0.5662 H         1 <0>         0.0947
     37 H6         -7.8473    3.7517    0.5735 H         1 <0>         0.1201
     38 H7         -6.0394   -0.1050    0.9584 H         1 <0>         0.3694
     39 H8         -6.7640    0.2052   -0.5061 H         1 <0>         0.3762
     40 H9         -1.3916    2.5653    0.9126 H         1 <0>         0.1391
     41 H10        -1.4000    2.5749   -0.8673 H         1 <0>         0.1393
     42 H11         1.1304    2.8682    0.0067 H         1 <0>         0.4321
     43 H12         5.1832   -1.2465   -0.0520 H         1 <0>         0.2013
     44 H13         6.9785   -0.4465   -0.0539 H         1 <0>         0.1364
     45 H14         9.2480    0.5019   -0.0767 H         1 <0>         0.1402
     46 H15         7.6143    4.4467   -0.0461 H         1 <0>         0.1387
     47 H16         5.3389    3.5125   -0.0307 H         1 <0>         0.1425
@<TRIPOS>BOND
     1    1    6 ar
     2    1    2 ar
     3    1   32 1
     4    2    3 ar
     5    2   33 1
     6    3    4 ar
     7    3   34 1
     8    4    5 ar
     9    4   31 1
    10    5    6 ar
    11    5    7 1
    12    6   35 1
    13    7    8 1
    14    7   36 1
    15    7   37 1
    16    8   12 1
    17    8    9 2
    18    9   10 1
    19   10   11 2
    20   11   12 1
    21   11   14 1
    22   12   13 1
    23   13   38 1
    24   13   39 1
    25   14   15 1
    26   15   16 1
    27   15   40 1
    28   15   41 1
    29   16   17 2
    30   16   18 am
    31   18   19 1
    32   18   42 1
    33   19   23 1
    34   19   20 2
    35   20   21 1
    36   21   22 2
    37   21   24 1
    38   22   23 1
    39   22   43 1
    40   24   29 ar
    41   24   25 ar
    42   25   26 ar
    43   25   44 1
    44   26   27 ar
    45   26   45 1
    46   27   28 ar
    47   27   30 1
    48   28   29 ar
    49   28   46 1
    50   29   47 1
@<TRIPOS>MOLECULE
ZINC21000889
   52    55     0     0     0
SMALL
USER_CHARGES
N-(3-carbamoyl-5-phenyl-2-thienyl)-1-[(5-chloro-2-thienyl)sulfonyl]piperidine-4-carboxamide
@<TRIPOS>ATOM
      1 C1          7.4975   -3.7342    8.8666 C.ar      1 <0>        -0.1189
      2 C2          6.2201   -3.8579    8.3496 C.ar      1 <0>        -0.1109
      3 C3          5.8541   -3.1423    7.2284 C.ar      1 <0>        -0.1132
      4 C4          6.7758   -2.2919    6.6154 C.ar      1 <0>         0.0046
      5 C5          8.0647   -2.1761    7.1388 C.ar      1 <0>        -0.1059
      6 C6          8.4159   -2.8931    8.2638 C.ar      1 <0>        -0.1129
      7 C7          6.3906   -1.5221    5.4139 C.2       1 <0>        -0.1839
      8 C8          7.1418   -0.6523    4.6854 C.2       1 <0>        -0.0915
      9 C9          6.5425   -0.0455    3.5816 C.2       1 <0>        -0.2559
     10 C10         5.2174   -0.3733    3.3037 C.2       1 <0>         0.1211
     11 S1          4.8243   -1.4970    4.5632 S.3       1 <0>         0.2517
     12 N1          4.4108    0.0895    2.2772 N.am      1 <0>        -0.6230
     13 C11         3.1403   -0.3472    2.1693 C.2       1 <0>         0.5090
     14 O1          2.7033   -1.1455    2.9710 O.2       1 <0>        -0.5009
     15 C12         2.2627    0.1563    1.0525 C.3       1 <0>        -0.0969
     16 C13         0.8803   -0.4916    1.1586 C.3       1 <0>        -0.1195
     17 C14         0.0021   -0.0041    0.0020 C.3       1 <0>         0.1159
     18 N2         -0.0178    1.4650    0.0101 N.pl3     1 <0>        -0.9929
     19 C15         1.2607    2.1889    0.0018 C.3       1 <0>         0.1195
     20 C16         2.1248    1.6768    1.1584 C.3       1 <0>        -0.1331
     21 S2         -1.4541    2.2893    0.0214 S.o2      1 <0>         2.7232
     22 O2         -1.1890    3.5745   -0.5237 O.2       1 <0>        -0.9401
     23 O3         -2.4288    1.4144   -0.5296 O.2       1 <0>        -0.9409
     24 C17        -1.8979    2.5395    1.7081 C.2       1 <0>        -0.7639
     25 C18        -1.5887    3.5737    2.5273 C.2       1 <0>         0.0016
     26 C19        -2.0516    3.5590    3.8302 C.2       1 <0>        -0.1754
     27 C20        -2.8017    2.5092    4.2491 C.2       1 <0>        -0.0859
     28 S3         -2.8780    1.4999    2.7785 S.3       1 <0>         0.2243
     29 Cl1        -3.5098    2.2247    5.8084 Cl        1 <0>         0.0368
     30 C21         7.2819    0.9041    2.7425 C.2       1 <0>         0.5935
     31 O4          6.7381    1.4208    1.7842 O.2       1 <0>        -0.5730
     32 N3          8.5633    1.2042    3.0331 N.am      1 <0>        -0.8702
     33 H1          7.7788   -4.2964    9.7448 H         1 <0>         0.1248
     34 H2          5.5078   -4.5160    8.8251 H         1 <0>         0.1269
     35 H3          4.8565   -3.2395    6.8261 H         1 <0>         0.1223
     36 H4          8.7840   -1.5236    6.6664 H         1 <0>         0.1240
     37 H5          9.4114   -2.8010    8.6724 H         1 <0>         0.1267
     38 H6          8.1665   -0.4394    4.9522 H         1 <0>         0.1376
     39 H7          4.8071    0.8135    1.5500 H         1 <0>         0.4628
     40 H8          2.7273   -0.1105    0.0918 H         1 <0>         0.1131
     41 H9          0.9832   -1.5856    1.1069 H         1 <0>         0.0917
     42 H10         0.4167   -0.2118    2.1161 H         1 <0>         0.0802
     43 H11         0.4161   -0.3663   -0.9506 H         1 <0>         0.0859
     44 H12        -1.0195   -0.3917    0.1287 H         1 <0>         0.1004
     45 H13         1.7753    2.0132   -0.9544 H         1 <0>         0.0878
     46 H14         1.0731    3.2658    0.1248 H         1 <0>         0.1008
     47 H15         1.6494    1.9360    2.1159 H         1 <0>         0.0789
     48 H16         3.1212    2.1399    1.1065 H         1 <0>         0.0875
     49 H17        -0.9893    4.3971    2.1680 H         1 <0>         0.1561
     50 H18        -1.8194    4.3706    4.5039 H         1 <0>         0.1542
     51 H19         9.1177    1.9162    2.4040 H         1 <0>         0.4263
     52 H20         9.0547    0.7372    3.8994 H         1 <0>         0.4196
@<TRIPOS>BOND
     1    1    6 ar
     2    1    2 ar
     3    1   33 1
     4    2    3 ar
     5    2   34 1
     6    3    4 ar
     7    3   35 1
     8    4    5 ar
     9    4    7 1
    10    5    6 ar
    11    5   36 1
    12    6   37 1
    13    7   11 1
    14    7    8 2
    15    8    9 1
    16    8   38 1
    17    9   10 2
    18    9   30 1
    19   10   11 1
    20   10   12 1
    21   12   13 am
    22   12   39 1
    23   13   14 2
    24   13   15 1
    25   15   20 1
    26   15   16 1
    27   15   40 1
    28   16   17 1
    29   16   41 1
    30   16   42 1
    31   17   18 1
    32   17   43 1
    33   17   44 1
    34   18   19 1
    35   18   21 1
    36   19   20 1
    37   19   45 1
    38   19   46 1
    39   20   47 1
    40   20   48 1
    41   21   22 2
    42   21   23 2
    43   21   24 1
    44   24   28 1
    45   24   25 2
    46   25   26 1
    47   25   49 1
    48   26   27 2
    49   26   50 1
    50   27   28 1
    51   27   29 1
    52   30   31 2
    53   30   32 am
    54   32   51 1
    55   32   52 1
@<TRIPOS>MOLECULE
ZINC34786042
   55    58     0     0     0
SMALL
USER_CHARGES

@<TRIPOS>ATOM
      1 C1         -2.8276   -0.8658   -0.9511 C.3       1 <0>         0.0266
      2 O1         -2.1681   -2.1330   -0.9156 O.3       1 <0>        -0.3178
      3 C2         -1.1373   -2.3164   -1.7820 C.ar      1 <0>         0.1377
      4 C3         -0.7665   -1.2933   -2.6439 C.ar      1 <0>        -0.2090
      5 C4          0.2792   -1.4765   -3.5243 C.ar      1 <0>        -0.0438
      6 C5          0.9642   -2.6903   -3.5477 C.ar      1 <0>        -0.0254
      7 C6          0.5897   -3.7155   -2.6807 C.ar      1 <0>        -0.0375
      8 C7         -0.4537   -3.5245   -1.7992 C.ar      1 <0>        -0.1524
      9 C8          2.0889   -2.8907   -4.4936 C.2       1 <0>         0.1828
     10 C9          3.2428   -3.6657   -4.2543 C.2       1 <0>        -0.0379
     11 C10         4.0285   -3.5937   -5.3653 C.2       1 <0>         0.3554
     12 N1          3.3897   -2.8003   -6.2721 N.pl3     1 <0>        -0.3496
     13 N2          2.1802   -2.3800   -5.7050 N.2       1 <0>        -0.2803
     14 C11         3.8590   -2.4680   -7.5492 C.ar      1 <0>         0.2048
     15 C12         5.2193   -2.2931   -7.7670 C.ar      1 <0>        -0.1517
     16 C13         5.6789   -1.9654   -9.0275 C.ar      1 <0>        -0.0398
     17 C14         4.7860   -1.8109  -10.0721 C.ar      1 <0>        -0.1924
     18 C15         3.4308   -1.9843   -9.8585 C.ar      1 <0>        -0.0419
     19 C16         2.9654   -2.3182   -8.6017 C.ar      1 <0>        -0.1139
     20 C17         5.2908   -1.4524  -11.4460 C.3       1 <0>         0.5107
     21 F1          5.5655   -2.6225  -12.1619 F         1 <0>        -0.1744
     22 F2          4.3163   -0.7101  -12.1218 F         1 <0>        -0.1743
     23 F3          6.4591   -0.6916  -11.3297 F         1 <0>        -0.1752
     24 N3          5.2635   -4.2186   -5.5430 N.pl3     1 <0>        -0.8513
     25 N4          3.5321   -4.3856   -3.0757 N.am      1 <0>        -0.6586
     26 C18         3.1927   -3.8767   -1.8748 C.2       1 <0>         0.7021
     27 O2          2.7371   -2.7517   -1.7978 O.2       1 <0>        -0.5460
     28 N5          3.3582   -4.6145   -0.7591 N.am      1 <0>        -0.6305
     29 C19         4.0143   -5.9200   -0.8464 C.3       1 <0>         0.1099
     30 C20         5.3454   -5.8745   -0.0875 C.3       1 <0>        -0.1052
     31 S1          5.0180   -5.3822    1.6318 S.3       1 <0>        -0.2504
     32 C21         4.0762   -3.8380    1.4476 C.3       1 <0>        -0.1006
     33 C22         2.8851   -4.0978    0.5261 C.3       1 <0>         0.1293
     34 H1         -2.1107   -0.0766   -0.7246 H         1 <0>         0.0562
     35 H2         -3.2468   -0.7020   -1.9439 H         1 <0>         0.0560
     36 H3         -3.6285   -0.8522   -0.2118 H         1 <0>         0.1001
     37 H4         -1.2976   -0.3531   -2.6252 H         1 <0>         0.1289
     38 H5          0.5668   -0.6804   -4.1951 H         1 <0>         0.1259
     39 H6          1.1183   -4.6572   -2.6967 H         1 <0>         0.1193
     40 H7         -0.7417   -4.3170   -1.1244 H         1 <0>         0.1291
     41 H8          5.9171   -2.4130   -6.9515 H         1 <0>         0.1410
     42 H9          6.7367   -1.8293   -9.1975 H         1 <0>         0.1481
     43 H10         2.7359   -1.8626  -10.6762 H         1 <0>         0.1482
     44 H11         1.9074   -2.4582   -8.4365 H         1 <0>         0.1497
     45 H12         5.6105   -4.8107   -4.8575 H         1 <0>         0.4145
     46 H13         5.7751   -4.0607   -6.3519 H         1 <0>         0.4052
     47 H14         3.9752   -5.2468   -3.1299 H         1 <0>         0.3978
     48 H15         3.3702   -6.6806   -0.4051 H         1 <0>         0.0914
     49 H16         4.2005   -6.1638   -1.8924 H         1 <0>         0.0845
     50 H17         5.8095   -6.8607   -0.1036 H         1 <0>         0.1185
     51 H18         6.0090   -5.1477   -0.5561 H         1 <0>         0.0860
     52 H19         3.7200   -3.5081    2.4235 H         1 <0>         0.1188
     53 H20         4.7143   -3.0704    1.0097 H         1 <0>         0.0871
     54 H21         2.3428   -3.1660    0.3657 H         1 <0>         0.1098
     55 H22         2.2226   -4.8286    0.9898 H         1 <0>         0.0843
@<TRIPOS>BOND
     1    1    2 1
     2    1   34 1
     3    1   35 1
     4    1   36 1
     5    2    3 1
     6    3    8 ar
     7    3    4 ar
     8    4    5 ar
     9    4   37 1
    10    5    6 ar
    11    5   38 1
    12    6    7 ar
    13    6    9 1
    14    7    8 ar
    15    7   39 1
    16    8   40 1
    17    9   13 2
    18    9   10 1
    19   10   11 2
    20   10   25 1
    21   11   12 1
    22   11   24 1
    23   12   13 1
    24   12   14 1
    25   14   19 ar
    26   14   15 ar
    27   15   16 ar
    28   15   41 1
    29   16   17 ar
    30   16   42 1
    31   17   18 ar
    32   17   20 1
    33   18   19 ar
    34   18   43 1
    35   19   44 1
    36   20   21 1
    37   20   22 1
    38   20   23 1
    39   24   45 1
    40   24   46 1
    41   25   26 am
    42   25   47 1
    43   26   27 2
    44   26   28 am
    45   28   33 1
    46   28   29 1
    47   29   30 1
    48   29   48 1
    49   29   49 1
    50   30   31 1
    51   30   50 1
    52   30   51 1
    53   31   32 1
    54   32   33 1
    55   32   52 1
    56   32   53 1
    57   33   54 1
    58   33   55 1
@<TRIPOS>MOLECULE
ZINC58095081
   56    59     0     0     0
SMALL
USER_CHARGES

@<TRIPOS>ATOM
      1 C1         -0.7187  -13.1497   -8.4327 C.3       1 <0>        -0.1173
      2 C2         -0.6231  -12.4049   -7.1262 C.ar      1 <0>        -0.0765
      3 C3         -1.6901  -12.4151   -6.2466 C.ar      1 <0>        -0.1117
      4 C4         -1.6059  -11.7331   -5.0486 C.ar      1 <0>        -0.0661
      5 C5         -0.4478  -11.0369   -4.7275 C.ar      1 <0>         0.1125
      6 C6          0.6222  -11.0290   -5.6129 C.ar      1 <0>        -0.1138
      7 C7          0.5335  -11.7173   -6.8070 C.ar      1 <0>        -0.1151
      8 N1         -0.3595  -10.3448   -3.5153 N.pl3     1 <0>        -0.6089
      9 C8         -0.7808  -10.9266   -2.3749 C.2       1 <0>         0.5827
     10 S1         -1.2820  -12.5636   -2.3835 S.2       1 <0>        -0.6025
     11 N2         -0.8075  -10.2197   -1.2277 N.pl3     1 <0>        -0.5446
     12 N3         -0.4996   -8.8530   -1.2397 N.2       1 <0>        -0.2955
     13 C9         -0.3939   -8.2013   -0.1212 C.2       1 <0>         0.2024
     14 C10        -0.3793   -8.9309    1.1573 C.2       1 <0>        -0.1966
     15 C11        -0.0744  -10.2436    1.3407 C.2       1 <0>         0.0856
     16 N4         -0.1692  -10.5570    2.6644 N.pl3     1 <0>        -0.5726
     17 H1          0.0016  -11.4349    3.0401 H         1 <0>         0.4295
     18 C12        -0.5426   -9.4472    3.3921 C.ar      1 <0>         0.1432
     19 C13        -0.6859   -8.3802    2.4893 C.ar      1 <0>        -0.1027
     20 C14        -1.0557   -7.1193    2.9522 C.ar      1 <0>         0.0400
     21 C15        -1.2764   -6.9245    4.2979 C.ar      1 <0>        -0.6907
     22 C16        -1.1317   -7.9765    5.1910 C.ar      1 <0>        -0.0060
     23 C17        -0.7742   -9.2307    4.7466 C.ar      1 <0>        -0.1360
     24 S2         -1.7442   -5.3316    4.8880 S.o2      1 <0>         2.6929
     25 O1         -1.2570   -5.2324    6.2191 O.2       1 <0>        -0.9522
     26 O2         -1.3865   -4.4019    3.8746 O.2       1 <0>        -0.9532
     27 N5         -3.3972   -5.3118    4.9862 N.pl3     1 <0>        -0.9953
     28 C18        -4.2134   -4.9919    3.8072 C.3       1 <0>         0.1206
     29 C19        -5.2330   -6.1152    3.5939 C.3       1 <0>        -0.1368
     30 C20        -6.0382   -6.3187    4.8793 C.3       1 <0>        -0.1187
     31 C21        -5.0965   -6.7301    6.0134 C.3       1 <0>        -0.1368
     32 C22        -4.0755   -5.6198    6.2526 C.3       1 <0>         0.1172
     33 H2         -0.3659  -14.1718   -8.2949 H         1 <0>         0.0729
     34 H3         -1.7560  -13.1654   -8.7670 H         1 <0>         0.0681
     35 H4         -0.1032  -12.6508   -9.1813 H         1 <0>         0.0672
     36 H5         -2.5904  -12.9566   -6.4969 H         1 <0>         0.1283
     37 H6         -2.4399  -11.7408   -4.3624 H         1 <0>         0.1369
     38 H7          1.5240  -10.4883   -5.3663 H         1 <0>         0.1245
     39 H8          1.3668  -11.7153   -7.4940 H         1 <0>         0.1279
     40 H9          0.0050   -9.4461   -3.4953 H         1 <0>         0.4183
     41 H10        -1.0398  -10.6572   -0.3937 H         1 <0>         0.4172
     42 H11        -0.3168   -7.1241   -0.1291 H         1 <0>         0.1977
     43 H12         0.2008  -10.9335    0.5566 H         1 <0>         0.1822
     44 H13        -1.1684   -6.2985    2.2594 H         1 <0>         0.1466
     45 H14        -1.3066   -7.8120    6.2439 H         1 <0>         0.1450
     46 H15        -0.6634  -10.0423    5.4504 H         1 <0>         0.1361
     47 H16        -4.7365   -4.0496    3.9697 H         1 <0>         0.0780
     48 H17        -3.5717   -4.9095    2.9300 H         1 <0>         0.0879
     49 H18        -5.9073   -5.8450    2.7812 H         1 <0>         0.0763
     50 H19        -4.7104   -7.0379    3.3420 H         1 <0>         0.0663
     51 H20        -6.5408   -5.3884    5.1441 H         1 <0>         0.0663
     52 H21        -6.7812   -7.1007    4.7225 H         1 <0>         0.0651
     53 H22        -5.6736   -6.8976    6.9228 H         1 <0>         0.0773
     54 H23        -4.5752   -7.6471    5.7388 H         1 <0>         0.0664
     55 H24        -3.3429   -5.9515    6.9883 H         1 <0>         0.0933
     56 H25        -4.5872   -4.7298    6.6190 H         1 <0>         0.0771
@<TRIPOS>BOND
     1    1    2 1
     2    1   33 1
     3    1   34 1
     4    1   35 1
     5    2    7 ar
     6    2    3 ar
     7    3    4 ar
     8    3   36 1
     9    4    5 ar
    10    4   37 1
    11    5    6 ar
    12    5    8 1
    13    6    7 ar
    14    6   38 1
    15    7   39 1
    16    8    9 1
    17    8   40 1
    18    9   10 2
    19    9   11 1
    20   11   12 1
    21   11   41 1
    22   12   13 2
    23   13   14 1
    24   13   42 1
    25   14   19 1
    26   14   15 2
    27   15   16 1
    28   15   43 1
    29   16   17 1
    30   16   18 1
    31   18   23 ar
    32   18   19 ar
    33   19   20 ar
    34   20   21 ar
    35   20   44 1
    36   21   22 ar
    37   21   24 1
    38   22   23 ar
    39   22   45 1
    40   23   46 1
    41   24   25 2
    42   24   26 2
    43   24   27 1
    44   27   32 1
    45   27   28 1
    46   28   29 1
    47   28   47 1
    48   28   48 1
    49   29   30 1
    50   29   49 1
    51   29   50 1
    52   30   31 1
    53   30   51 1
    54   30   52 1
    55   31   32 1
    56   31   53 1
    57   31   54 1
    58   32   55 1
    59   32   56 1
@<TRIPOS>MOLECULE
ZINC03166611
   55    58     0     0     0
SMALL
USER_CHARGES
4-(2,6-dimethylmorpholin-4-yl)sulfonyl-N-(6-sulfamoylbenzothiazol-2-yl)-benzamide
@<TRIPOS>ATOM
      1 C1        -15.0175   -4.8856   -4.2902 C.3       1 <0>        -0.1475
      2 C2        -14.3504   -5.4491   -3.0339 C.3       1 <0>         0.0697
      3 H1        -13.4549   -4.8707   -2.8067 H         1 <0>         0.0671
      4 C3        -13.9673   -6.9143   -3.2709 C.3       1 <0>         0.0904
      5 N1        -13.5025   -7.4845   -1.9965 N.pl3     1 <0>        -0.9968
      6 C4        -14.3555   -7.3125   -0.8098 C.3       1 <0>         0.0901
      7 C5        -14.7172   -5.8232   -0.6916 C.3       1 <0>         0.0754
      8 H2        -15.4564   -5.6910    0.0986 H         1 <0>         0.1180
      9 O1        -15.2611   -5.3726   -1.9345 O.3       1 <0>        -0.3646
     10 C6        -13.4622   -5.0136   -0.3594 C.3       1 <0>        -0.1914
     11 S1        -12.0652   -8.3016   -1.9019 S.o2      1 <0>         2.6868
     12 O2        -11.7829   -8.7794   -3.2100 O.2       1 <0>        -0.9445
     13 O3        -12.1632   -9.1672   -0.7793 O.2       1 <0>        -0.9433
     14 C7        -10.8175   -7.1182   -1.5179 C.ar      1 <0>        -0.6532
     15 C8        -10.5131   -6.8425   -0.1966 C.ar      1 <0>        -0.0212
     16 C9         -9.5370   -5.9175    0.1111 C.ar      1 <0>        -0.0707
     17 C10        -8.8562   -5.2586   -0.9142 C.ar      1 <0>        -0.0790
     18 C11        -9.1723   -5.5373   -2.2452 C.ar      1 <0>        -0.1061
     19 C12       -10.1462   -6.4691   -2.5389 C.ar      1 <0>        -0.0235
     20 C13        -7.8097   -4.2660   -0.5921 C.2       1 <0>         0.5528
     21 O4         -7.5401   -4.0218    0.5676 O.2       1 <0>        -0.4438
     22 N2         -7.1542   -3.6317   -1.5843 N.am      1 <0>        -0.6124
     23 C14        -6.1740   -2.7020   -1.2826 C.2       1 <0>         0.3920
     24 N3         -5.7474   -2.3078   -0.1052 N.2       1 <0>        -0.5177
     25 C15        -4.7744   -1.3829    0.0419 C.ar      1 <0>         0.1657
     26 C16        -4.2271   -0.8747    1.2428 C.ar      1 <0>        -0.0861
     27 C17        -3.2347    0.0699    1.2153 C.ar      1 <0>        -0.0099
     28 C18        -2.7327    0.5596    0.0181 C.ar      1 <0>        -0.6703
     29 C19        -3.2483    0.0888   -1.1755 C.ar      1 <0>         0.0572
     30 C20        -4.2391   -0.8610   -1.1578 C.ar      1 <0>        -0.1849
     31 S2         -5.1676   -1.7324   -2.3968 S.3       1 <0>         0.0412
     32 S3         -1.4563    1.7742    0.0186 S.o2      1 <0>         2.7084
     33 O5         -1.5359    2.4465    1.2680 O.2       1 <0>        -0.9559
     34 O6         -1.5477    2.4600   -1.2226 O.2       1 <0>        -0.9594
     35 N4         -0.0111    0.9658    0.0074 N.pl3     1 <0>        -1.2490
     36 H3        -15.9139   -5.4633   -4.5158 H         1 <0>         0.0687
     37 H4        -15.2897   -3.8438   -4.1210 H         1 <0>         0.0690
     38 H5        -14.3242   -4.9484   -5.1290 H         1 <0>         0.0752
     39 H6        -13.1688   -6.9699   -4.0108 H         1 <0>         0.0993
     40 H7        -14.8364   -7.4683   -3.6257 H         1 <0>         0.0887
     41 H8        -15.2631   -7.9058   -0.9210 H         1 <0>         0.0894
     42 H9        -13.8143   -7.6319    0.0808 H         1 <0>         0.1009
     43 H10       -13.7212   -3.9577   -0.2808 H         1 <0>         0.0701
     44 H11       -13.0481   -5.3577    0.5883 H         1 <0>         0.0701
     45 H12       -12.7232   -5.1486   -1.1492 H         1 <0>         0.0603
     46 H13       -11.0406   -7.3529    0.5957 H         1 <0>         0.1520
     47 H14        -9.2999   -5.7037    1.1428 H         1 <0>         0.1521
     48 H15        -8.6524   -5.0279   -3.0430 H         1 <0>         0.1381
     49 H16       -10.3884   -6.6892   -3.5681 H         1 <0>         0.1512
     50 H17        -7.3694   -3.8267   -2.5099 H         1 <0>         0.4322
     51 H18        -4.5955   -1.2347    2.1921 H         1 <0>         0.1474
     52 H19        -2.8340    0.4415    2.1468 H         1 <0>         0.1555
     53 H20        -2.8712    0.4632   -2.1157 H         1 <0>         0.1556
     54 H21         0.0021   -0.0041    0.0020 H         1 <0>         0.4176
     55 H22         0.8223    1.4622    0.0021 H         1 <0>         0.4230
@<TRIPOS>BOND
     1    1    2 1
     2    1   36 1
     3    1   37 1
     4    1   38 1
     5    2    3 1
     6    2    9 1
     7    2    4 1
     8    4    5 1
     9    4   39 1
    10    4   40 1
    11    5    6 1
    12    5   11 1
    13    6    7 1
    14    6   41 1
    15    6   42 1
    16    7    8 1
    17    7    9 1
    18    7   10 1
    19   10   43 1
    20   10   44 1
    21   10   45 1
    22   11   12 2
    23   11   13 2
    24   11   14 1
    25   14   19 ar
    26   14   15 ar
    27   15   16 ar
    28   15   46 1
    29   16   17 ar
    30   16   47 1
    31   17   18 ar
    32   17   20 1
    33   18   19 ar
    34   18   48 1
    35   19   49 1
    36   20   21 2
    37   20   22 am
    38   22   23 1
    39   22   50 1
    40   23   31 1
    41   23   24 2
    42   24   25 1
    43   25   30 ar
    44   25   26 ar
    45   26   27 ar
    46   26   51 1
    47   27   28 ar
    48   27   52 1
    49   28   29 ar
    50   28   32 1
    51   29   30 ar
    52   29   53 1
    53   30   31 1
    54   32   33 2
    55   32   34 2
    56   32   35 1
    57   35   54 1
    58   35   55 1
@<TRIPOS>MOLECULE
ZINC12412585
   55    59     0     0     0
SMALL
USER_CHARGES
(4S)-2-amino-1-(5-ethylsulfanyl-1,3,4-thiadiazol-2-yl)-7,7-dimethyl-2',5-dioxo-spiro[6,8-dihydroquinoline-4,3'-indoline]-3-carbonitrile
@<TRIPOS>ATOM
      1 C1          0.0698   -6.7286   -0.6173 C.3       1 <0>        -0.1422
      2 C2          0.0182   -5.2195   -0.8643 C.3       1 <0>        -0.1221
      3 S1          0.1608   -4.3427    0.7173 S.3       1 <0>         0.0807
      4 C3          0.0856   -2.6403    0.2691 C.2       1 <0>         0.0458
      5 N1         -0.0446   -2.0781   -0.9242 N.2       1 <0>        -0.2789
      6 N2         -0.0871   -0.8260   -1.0701 N.2       1 <0>        -0.2263
      7 C4          0.0062    0.0032   -0.0433 C.2       1 <0>         0.2126
      8 S2          0.1622   -1.1752    1.2957 S.3       1 <0>         0.0782
      9 N3         -0.0167    1.3957   -0.0122 N.pl3     1 <0>        -0.4237
     10 C5          1.1599    2.0948   -0.0802 C.2       1 <0>         0.2315
     11 C6          1.2209    3.3800    0.3313 C.2       1 <0>        -0.2209
     12 C7          2.4235    4.1047    0.2662 C.2       1 <0>         0.4051
     13 O1          2.4408    5.2648    0.6276 O.2       1 <0>        -0.4471
     14 C8          3.6896    3.4712   -0.2424 C.3       1 <0>        -0.1460
     15 C9          3.6376    1.9644    0.0309 C.3       1 <0>        -0.0543
     16 C10         2.3792    1.3955   -0.6285 C.3       1 <0>        -0.0874
     17 C11         3.5841    1.7170    1.5398 C.3       1 <0>        -0.1559
     18 C12         4.8775    1.2914   -0.5611 C.3       1 <0>        -0.1416
     19 C13        -0.0000    4.0735    0.8766 C.3       1 <0>         0.0993
     20 C14         0.1066    4.2349    2.3621 C.ar      1 <0>        -0.1368
     21 C15         0.1934    3.3051    3.3758 C.ar      1 <0>        -0.0487
     22 C16         0.2810    3.7951    4.6745 C.ar      1 <0>        -0.1504
     23 C17         0.2799    5.1508    4.9329 C.ar      1 <0>        -0.0791
     24 C18         0.1935    6.0911    3.9183 C.ar      1 <0>        -0.1438
     25 C19         0.1065    5.6125    2.6098 C.ar      1 <0>         0.1701
     26 N4          0.0124    6.3148    1.4217 N.am      1 <0>        -0.6498
     27 C20        -0.0526    5.4950    0.3526 C.2       1 <0>         0.5522
     28 O2         -0.1371    5.8318   -0.8095 O.2       1 <0>        -0.4886
     29 C21        -1.2584    3.3470    0.5070 C.2       1 <0>        -0.2092
     30 C22        -1.2217    2.0554    0.0808 C.2       1 <0>         0.4868
     31 N5         -2.3868    1.4067   -0.2522 N.pl3     1 <0>        -0.8403
     32 C23        -2.5170    4.0238    0.5983 C.1       1 <0>         0.2657
     33 N6         -3.5155    4.5608    0.6707 N.1       1 <0>        -0.4223
     34 H1          1.0165   -6.9869   -0.1428 H         1 <0>         0.0707
     35 H2         -0.7543   -7.0185    0.0344 H         1 <0>         0.0704
     36 H3         -0.0158   -7.2554   -1.5677 H         1 <0>         0.0875
     37 H4         -0.9284   -4.9612   -1.3389 H         1 <0>         0.1031
     38 H5          0.8424   -4.9296   -1.5161 H         1 <0>         0.1036
     39 H6          4.4755    3.8731    0.2276 H         1 <0>         0.0952
     40 H7          3.7807    3.6446   -1.3146 H         1 <0>         0.1078
     41 H8          2.3105    0.3281   -0.4187 H         1 <0>         0.0874
     42 H9          2.4328    1.5508   -1.7061 H         1 <0>         0.1135
     43 H10         3.5287    0.6453    1.7305 H         1 <0>         0.0628
     44 H11         4.4814    2.1232    2.0066 H         1 <0>         0.0695
     45 H12         2.7040    2.2063    1.9572 H         1 <0>         0.0621
     46 H13         4.9151    1.4787   -1.6343 H         1 <0>         0.0637
     47 H14         5.7720    1.6985   -0.0897 H         1 <0>         0.0689
     48 H15         4.8288    0.2174   -0.3813 H         1 <0>         0.0623
     49 H16         0.1938    2.2447    3.1710 H         1 <0>         0.1255
     50 H17         0.3509    3.1000    5.4982 H         1 <0>         0.1248
     51 H18         0.3488    5.4891    5.9562 H         1 <0>         0.1267
     52 H19         0.1932    7.1499    4.1311 H         1 <0>         0.1343
     53 H20        -0.0051    7.2830    1.3642 H         1 <0>         0.4153
     54 H21        -2.3709    0.4609   -0.4671 H         1 <0>         0.4065
     55 H22        -3.2249    1.8946   -0.2724 H         1 <0>         0.4256
@<TRIPOS>BOND
     1    1    2 1
     2    1   34 1
     3    1   35 1
     4    1   36 1
     5    2    3 1
     6    2   37 1
     7    2   38 1
     8    3    4 1
     9    4    8 1
    10    4    5 2
    11    5    6 1
    12    6    7 2
    13    7    8 1
    14    7    9 1
    15    9   30 1
    16    9   10 1
    17   10   16 1
    18   10   11 2
    19   11   12 1
    20   11   19 1
    21   12   13 2
    22   12   14 1
    23   14   15 1
    24   14   39 1
    25   14   40 1
    26   15   16 1
    27   15   17 1
    28   15   18 1
    29   16   41 1
    30   16   42 1
    31   17   43 1
    32   17   44 1
    33   17   45 1
    34   18   46 1
    35   18   47 1
    36   18   48 1
    37   19   27 1
    38   19   20 1
    39   19   29 1
    40   20   25 ar
    41   20   21 ar
    42   21   22 ar
    43   21   49 1
    44   22   23 ar
    45   22   50 1
    46   23   24 ar
    47   23   51 1
    48   24   25 ar
    49   24   52 1
    50   25   26 1
    51   26   27 am
    52   26   53 1
    53   27   28 2
    54   29   30 2
    55   29   32 1
    56   30   31 1
    57   31   54 1
    58   31   55 1
    59   32   33 3
@<TRIPOS>MOLECULE
ZINC21810410
   58    61     0     0     0
SMALL
USER_CHARGES
N-(4-acetamidophenyl)-2-[[6-[(4-fluorophenyl)methyl]-4-oxo-3,5,7,8-tetrahydropyrido[4,3-d]pyrimidin-2-yl]sulfanyl]acetamide
@<TRIPOS>ATOM
      1 C1        -13.7838    3.9656    1.8065 C.3       1 <0>        -0.1719
      2 C2        -12.3760    3.4553    1.6379 C.2       1 <0>         0.5109
      3 O1        -11.8590    2.7997    2.5177 O.2       1 <0>        -0.5330
      4 N1        -11.6912    3.7276    0.5095 N.am      1 <0>        -0.6857
      5 C3        -10.3510    3.3371    0.3920 C.ar      1 <0>         0.1296
      6 C4         -9.4531    4.1370   -0.3026 C.ar      1 <0>        -0.1257
      7 C5         -8.1324    3.7524   -0.4179 C.ar      1 <0>        -0.1035
      8 C6         -7.7016    2.5657    0.1606 C.ar      1 <0>         0.1347
      9 C7         -8.6009    1.7631    0.8503 C.ar      1 <0>        -0.1265
     10 C8         -9.9203    2.1505    0.9706 C.ar      1 <0>        -0.1047
     11 N2         -6.3614    2.1756    0.0435 N.am      1 <0>        -0.6808
     12 C9         -5.3859    3.1055    0.0484 C.2       1 <0>         0.5312
     13 O2         -5.6717    4.2841    0.0696 O.2       1 <0>        -0.5071
     14 C10        -3.9401    2.6810    0.0274 C.3       1 <0>        -0.1458
     15 S1         -2.8803    4.1482    0.0398 S.3       1 <0>         0.0596
     16 C11        -1.2946    3.3805    0.0122 C.ar      1 <0>         0.3366
     17 N3         -0.1745    4.1553    0.0131 N.ar      1 <0>        -0.6128
     18 C12         1.0401    3.5694   -0.0166 C.ar      1 <0>         0.5149
     19 O3          2.0548    4.2469   -0.0168 O.3       1 <0>        -0.5951
     20 C13         1.1189    2.1626   -0.0470 C.ar      1 <0>        -0.4020
     21 C14        -0.0322    1.4386   -0.0424 C.ar      1 <0>         0.1958
     22 N4         -1.2108    2.0662   -0.0090 N.ar      1 <0>        -0.6220
     23 C15        -0.0206   -0.0683   -0.0657 C.3       1 <0>        -0.0912
     24 C16         1.3523   -0.5734   -0.5105 C.3       1 <0>         0.0074
     25 N5          2.3817    0.1013    0.2966 N.4       1 <0>        -0.3968
     26 C17         2.4762    1.5149   -0.0834 C.3       1 <0>         0.0953
     27 C18         3.6816   -0.5688    0.1589 C.3       1 <0>         0.0497
     28 C19         4.7539    0.2797    0.7925 C.ar      1 <0>        -0.1653
     29 C20         5.4258    1.2218    0.0363 C.ar      1 <0>        -0.0558
     30 C21         6.4059    2.0038    0.6175 C.ar      1 <0>        -0.1475
     31 C22         6.7222    1.8361    1.9550 C.ar      1 <0>         0.1331
     32 C23         6.0521    0.8884    2.7101 C.ar      1 <0>        -0.1539
     33 C24         5.0687    0.1112    2.1280 C.ar      1 <0>        -0.0653
     34 F1          7.6834    2.5968    2.5231 F         1 <0>        -0.1276
     35 H1        -14.0773    4.5343    0.9118 H         1 <0>         0.0791
     36 H2        -13.8334    4.6198    2.6895 H         1 <0>         0.0991
     37 H3        -14.4684    3.1152    1.9413 H         1 <0>         0.0981
     38 H4        -12.1846    4.2565   -0.3193 H         1 <0>         0.4346
     39 H5         -9.7880    5.0600   -0.7522 H         1 <0>         0.1287
     40 H6         -7.4339    4.3746   -0.9579 H         1 <0>         0.1433
     41 H7         -8.2668    0.8378    1.2961 H         1 <0>         0.1282
     42 H8        -10.6186    1.5285    1.5110 H         1 <0>         0.1406
     43 H9         -6.1051    1.1101   -0.0523 H         1 <0>         0.4355
     44 H10        -3.7257    2.0662    0.9141 H         1 <0>         0.1230
     45 H11        -3.7434    2.0942   -0.8819 H         1 <0>         0.1229
     46 H12        -0.7879   -0.4255   -0.7683 H         1 <0>         0.1205
     47 H13        -0.2418   -0.4477    0.9428 H         1 <0>         0.0995
     48 H14         1.4095   -1.6614   -0.3589 H         1 <0>         0.1307
     49 H15         1.5001   -0.3435   -1.5761 H         1 <0>         0.1257
     50 H16         3.1413    2.0395    0.6183 H         1 <0>         0.1250
     51 H17         2.8826    1.5942   -1.1026 H         1 <0>         0.1089
     52 H18         3.6446   -1.5474    0.6598 H         1 <0>         0.1355
     53 H19         3.9095   -0.7114   -0.9078 H         1 <0>         0.1312
     54 H20         5.1819    1.3497   -1.0080 H         1 <0>         0.1403
     55 H21         6.9279    2.7427    0.0276 H         1 <0>         0.1471
     56 H22         6.2976    0.7569    3.7535 H         1 <0>         0.1454
     57 H23         4.5457   -0.6278    2.7169 H         1 <0>         0.1400
     58 H24         2.0899    0.0463    1.3558 H         1 <0>         0.4386
@<TRIPOS>BOND
     1    1    2 1
     2    1   35 1
     3    1   36 1
     4    1   37 1
     5    2    3 2
     6    2    4 am
     7    4    5 1
     8    4   38 1
     9    5   10 ar
    10    5    6 ar
    11    6    7 ar
    12    6   39 1
    13    7    8 ar
    14    7   40 1
    15    8    9 ar
    16    8   11 1
    17    9   10 ar
    18    9   41 1
    19   10   42 1
    20   11   12 am
    21   11   43 1
    22   12   13 2
    23   12   14 1
    24   14   44 1
    25   14   45 1
    26   14   15 1
    27   15   16 1
    28   16   22 ar
    29   16   17 ar
    30   17   18 ar
    31   18   19 1
    32   18   20 ar
    33   20   26 1
    34   20   21 ar
    35   21   22 ar
    36   21   23 1
    37   23   24 1
    38   23   46 1
    39   23   47 1
    40   24   25 1
    41   24   48 1
    42   24   49 1
    43   25   26 1
    44   25   27 1
    45   25   58 1
    46   26   50 1
    47   26   51 1
    48   27   28 1
    49   27   52 1
    50   27   53 1
    51   28   33 ar
    52   28   29 ar
    53   29   30 ar
    54   29   54 1
    55   30   31 ar
    56   30   55 1
    57   31   32 ar
    58   31   34 1
    59   32   33 ar
    60   32   56 1
    61   33   57 1
@<TRIPOS>MOLECULE
ZINC39362868
   50    53     0     0     0
SMALL
USER_CHARGES

@<TRIPOS>ATOM
      1 C1         -0.0184    1.5028    0.0103 C.3       1 <0>        -0.0804
      2 C2          0.0021   -0.0041    0.0020 C.2       1 <0>         0.0850
      3 C3          0.0059   -0.7057   -1.1580 C.2       1 <0>        -0.2770
      4 S1          0.0324   -2.3787   -0.5348 S.3       1 <0>         0.2207
      5 C4          0.0358   -2.0148    1.1084 C.2       1 <0>         0.2410
      6 N1          0.0227   -0.6995    1.1240 N.2       1 <0>        -0.5491
      7 N2          0.0531   -2.8912    2.1872 N.am      1 <0>        -0.6064
      8 C5          0.0706   -4.2219    1.9741 C.2       1 <0>         0.5371
      9 O1          0.0712   -4.6547    0.8411 O.2       1 <0>        -0.4741
     10 C6          0.0895   -5.1722    3.1436 C.3       1 <0>        -0.1363
     11 S2          0.1103   -6.8806    2.5343 S.3       1 <0>        -0.0826
     12 C7          0.1316   -7.8850    4.0447 C.3       1 <0>         0.2026
     13 H1          0.1576   -8.9443    3.7891 H         1 <0>         0.1640
     14 N3          1.2939   -7.5368    4.8636 N.2       1 <0>        -0.1071
     15 N4          0.9634   -7.1107    5.9684 N.2       1 <0>        -0.1410
     16 C8         -0.4915   -7.0817    6.1274 C.3       1 <0>         0.1986
     17 H2         -0.8284   -6.0602    6.3037 H         1 <0>         0.1308
     18 N5         -1.0573   -7.5913    4.8644 N.pl3     1 <0>        -0.6535
     19 C9         -2.4034   -7.7566    4.5241 C.ar      1 <0>         0.2201
     20 C10        -3.3972   -7.4167    5.4327 C.ar      1 <0>        -0.1553
     21 C11        -4.7262   -7.5804    5.0943 C.ar      1 <0>        -0.1073
     22 C12        -5.0681   -8.0830    3.8502 C.ar      1 <0>         0.0629
     23 C13        -4.0789   -8.4225    2.9427 C.ar      1 <0>        -0.1051
     24 C14        -2.7487   -8.2556    3.2749 C.ar      1 <0>        -0.1340
     25 F1         -6.3687   -8.2426    3.5214 F         1 <0>        -0.1388
     26 C15        -0.9106   -7.9811    7.2921 C.3       1 <0>        -0.0925
     27 C16        -0.3950   -7.4023    8.5844 C.2       1 <0>         0.2059
     28 N6          0.8801   -7.6747    8.9993 N.am      1 <0>        -0.6270
     29 C17         1.3502   -7.1626   10.1512 C.2       1 <0>         0.7025
     30 O2          2.4864   -7.4176   10.5010 O.2       1 <0>        -0.5319
     31 N7          0.5804   -6.3717   10.9217 N.am      1 <0>        -0.6585
     32 C18        -0.6817   -6.0794   10.5480 C.2       1 <0>         0.5514
     33 O3         -1.3788   -5.3639   11.2445 O.2       1 <0>        -0.5082
     34 C19        -1.1873   -6.6080    9.3358 C.2       1 <0>        -0.2837
     35 H3          1.0042    1.8801    0.0026 H         1 <0>         0.0759
     36 H4         -0.5455    1.8639   -0.8728 H         1 <0>         0.0774
     37 H5         -0.5286    1.8543    0.9071 H         1 <0>         0.0741
     38 H6         -0.0046   -0.3507   -2.1779 H         1 <0>         0.1970
     39 H7          0.0527   -2.5451    3.0933 H         1 <0>         0.4258
     40 H8          0.9799   -4.9901    3.7453 H         1 <0>         0.1224
     41 H9         -0.7999   -5.0149    3.7539 H         1 <0>         0.1216
     42 H10        -3.1310   -7.0250    6.4033 H         1 <0>         0.1339
     43 H11        -5.4994   -7.3165    5.8007 H         1 <0>         0.1418
     44 H12        -4.3478   -8.8147    1.9730 H         1 <0>         0.1421
     45 H13        -1.9776   -8.5164    2.5652 H         1 <0>         0.1394
     46 H14        -1.9982   -8.0431    7.3301 H         1 <0>         0.1295
     47 H15        -0.4946   -8.9783    7.1490 H         1 <0>         0.1039
     48 H16         0.9350   -6.0108   11.7493 H         1 <0>         0.4339
     49 H17        -2.1943   -6.3816    9.0180 H         1 <0>         0.1721
     50 H18         1.4505   -8.2427    8.4579 H         1 <0>         0.4364
@<TRIPOS>BOND
     1    1    2 1
     2    1   35 1
     3    1   36 1
     4    1   37 1
     5    2    6 1
     6    2    3 2
     7    3    4 1
     8    3   38 1
     9    4    5 1
    10    5    6 2
    11    5    7 1
    12    7    8 am
    13    7   39 1
    14    8    9 2
    15    8   10 1
    16   10   11 1
    17   10   40 1
    18   10   41 1
    19   11   12 1
    20   12   13 1
    21   12   18 1
    22   12   14 1
    23   14   15 2
    24   15   16 1
    25   16   17 1
    26   16   18 1
    27   16   26 1
    28   18   19 1
    29   19   24 ar
    30   19   20 ar
    31   20   21 ar
    32   20   42 1
    33   21   22 ar
    34   21   43 1
    35   22   23 ar
    36   22   25 1
    37   23   24 ar
    38   23   44 1
    39   24   45 1
    40   26   46 1
    41   26   47 1
    42   26   27 1
    43   27   34 2
    44   27   28 1
    45   28   29 am
    46   28   50 1
    47   29   30 2
    48   29   31 am
    49   31   48 1
    50   31   32 am
    51   32   33 2
    52   32   34 1
    53   34   49 1
@<TRIPOS>MOLECULE
ZINC13121528
   63    67     0     0     0
SMALL
USER_CHARGES

@<TRIPOS>ATOM
      1 C1         -0.0341    1.5204    0.0125 C.3       1 <0>        -0.1869
      2 C2         -0.0019   -0.0093    0.0020 C.3       1 <0>         0.0670
      3 H1         -1.0216   -0.3942    0.0080 H         1 <0>         0.1153
      4 C3          0.7085   -0.4882   -1.2378 C.2       1 <0>         0.5199
      5 O1          1.7101   -1.1653   -1.1395 O.2       1 <0>        -0.4960
      6 N1          0.2309   -0.1642   -2.4557 N.am      1 <0>        -0.6711
      7 C4          0.9431   -0.5265   -3.6064 C.ar      1 <0>         0.1547
      8 C5          0.9528    0.3180   -4.7108 C.ar      1 <0>        -0.1305
      9 C6          1.6525   -0.0332   -5.8476 C.ar      1 <0>        -0.0843
     10 C7          2.3484   -1.2320   -5.8892 C.ar      1 <0>         0.0753
     11 C8          2.3407   -2.0823   -4.7816 C.ar      1 <0>         0.1099
     12 C9          1.6416   -1.7241   -3.6396 C.ar      1 <0>        -0.1070
     13 N2          3.1156   -3.1897   -5.1184 N.am      1 <0>        -0.6400
     14 H2          3.2945   -3.9523   -4.5463 H         1 <0>         0.4373
     15 C10         3.5741   -3.0216   -6.3730 C.2       1 <0>         0.6847
     16 O2          4.2834   -3.8090   -6.9711 O.2       1 <0>        -0.5536
     17 N3          3.1290   -1.8504   -6.8656 N.am      1 <0>        -0.6415
     18 H3          3.3186   -1.4971   -7.7489 H         1 <0>         0.4362
     19 N4          0.7109   -0.4922    1.1922 N.3       1 <0>        -0.5106
     20 C11         2.0453    0.1143    1.2890 C.3       1 <0>         0.0335
     21 C12         2.8213   -0.5463    2.4334 C.3       1 <0>         0.1288
     22 N5          2.0100   -0.4628    3.6573 N.pl3     1 <0>        -0.9986
     23 C13         0.6152   -0.9259    3.6005 C.3       1 <0>         0.1268
     24 C14        -0.0740   -0.2503    2.4101 C.3       1 <0>         0.0399
     25 S1          2.6501    0.1363    5.0622 S.o2      1 <0>         2.6888
     26 O3          1.8811   -0.4107    6.1245 O.2       1 <0>        -0.9535
     27 O4          4.0578   -0.0366    4.9732 O.2       1 <0>        -0.9521
     28 C15         2.3556    1.8735    5.0697 C.ar      1 <0>        -0.6777
     29 C16         3.2822    2.7366    4.5148 C.ar      1 <0>        -0.0247
     30 C17         3.0459    4.0954    4.5272 C.ar      1 <0>        -0.1396
     31 C18         1.8832    4.6046    5.0916 C.ar      1 <0>        -0.0197
     32 C19         0.9582    3.7449    5.6397 C.ar      1 <0>        -0.0963
     33 C20         1.1971    2.3765    5.6243 C.ar      1 <0>        -0.0183
     34 C21        -0.3308    4.2250    6.2537 C.3       1 <0>        -0.0832
     35 C22        -0.2508    5.7163    6.5736 C.3       1 <0>        -0.1224
     36 C23         0.2274    6.4556    5.3184 C.3       1 <0>        -0.1209
     37 C24         1.6929    6.0988    5.0781 C.3       1 <0>        -0.0913
     38 H4          0.9857    1.9053    0.0065 H         1 <0>         0.0680
     39 H5         -0.5630    1.8787   -0.8706 H         1 <0>         0.0700
     40 H6         -0.5479    1.8668    0.9092 H         1 <0>         0.0722
     41 H7         -0.6059    0.3198   -2.5355 H         1 <0>         0.4132
     42 H8          0.4107    1.2516   -4.6793 H         1 <0>         0.1376
     43 H9          1.6577    0.6248   -6.7040 H         1 <0>         0.1377
     44 H10         1.6376   -2.3774   -2.7796 H         1 <0>         0.1502
     45 H11         2.5817   -0.0352    0.3519 H         1 <0>         0.1052
     46 H12         1.9462    1.1819    1.4854 H         1 <0>         0.0402
     47 H13         3.0118   -1.5918    2.1910 H         1 <0>         0.0875
     48 H14         3.7663   -0.0244    2.5842 H         1 <0>         0.0928
     49 H15         0.5936   -2.0079    3.4703 H         1 <0>         0.0869
     50 H16         0.1016   -0.6550    4.5230 H         1 <0>         0.0947
     51 H17        -0.1436    0.8223    2.5910 H         1 <0>         0.0446
     52 H18        -1.0746   -0.6644    2.2862 H         1 <0>         0.0912
     53 H19         4.1882    2.3482    4.0734 H         1 <0>         0.1382
     54 H20         3.7709    4.7691    4.0949 H         1 <0>         0.1314
     55 H21         0.4721    1.7014    6.0544 H         1 <0>         0.1372
     56 H22        -1.1487    4.0507    5.5546 H         1 <0>         0.0790
     57 H23        -0.5198    3.6700    7.1726 H         1 <0>         0.0794
     58 H24        -1.2357    6.0830    6.8627 H         1 <0>         0.0723
     59 H25         0.4557    5.8797    7.3874 H         1 <0>         0.0676
     60 H26        -0.3708    6.1478    4.4608 H         1 <0>         0.0666
     61 H27         0.1310    7.5311    5.4668 H         1 <0>         0.0721
     62 H28         2.3049    6.5462    5.8613 H         1 <0>         0.0849
     63 H29         2.0046    6.4920    4.1105 H         1 <0>         0.0810
@<TRIPOS>BOND
     1    1    2 1
     2    1   38 1
     3    1   39 1
     4    1   40 1
     5    2    3 1
     6    2    4 1
     7    2   19 1
     8    4    5 2
     9    4    6 am
    10    6    7 1
    11    6   41 1
    12    7   12 ar
    13    7    8 ar
    14    8    9 ar
    15    8   42 1
    16    9   10 ar
    17    9   43 1
    18   10   17 1
    19   10   11 ar
    20   11   12 ar
    21   11   13 1
    22   12   44 1
    23   13   14 1
    24   13   15 am
    25   15   16 2
    26   15   17 am
    27   17   18 1
    28   19   24 1
    29   19   20 1
    30   20   21 1
    31   20   45 1
    32   20   46 1
    33   21   22 1
    34   21   47 1
    35   21   48 1
    36   22   23 1
    37   22   25 1
    38   23   24 1
    39   23   49 1
    40   23   50 1
    41   24   51 1
    42   24   52 1
    43   25   26 2
    44   25   27 2
    45   25   28 1
    46   28   33 ar
    47   28   29 ar
    48   29   30 ar
    49   29   53 1
    50   30   31 ar
    51   30   54 1
    52   31   37 1
    53   31   32 ar
    54   32   33 ar
    55   32   34 1
    56   33   55 1
    57   34   35 1
    58   34   56 1
    59   34   57 1
    60   35   36 1
    61   35   58 1
    62   35   59 1
    63   36   37 1
    64   36   60 1
    65   36   61 1
    66   37   62 1
    67   37   63 1
@<TRIPOS>MOLECULE
ZINC09484891
   60    63     0     0     0
SMALL
USER_CHARGES
2-[2-(methyl-oxo-BLAHyl)acetyl]amino-3-methylsulfanyl-propanoic acid
@<TRIPOS>ATOM
      1 C1         -0.5805   -2.3257   -7.2481 C.3       1 <0>        -0.1255
      2 C2         -0.6182   -3.0176   -5.9098 C.2       1 <0>         0.0322
      3 C3         -1.0213   -2.3009   -4.6974 C.ar      1 <0>        -0.1685
      4 C4         -1.3789   -0.9503   -4.7460 C.ar      1 <0>        -0.0226
      5 C5         -1.7579   -0.2976   -3.6046 C.ar      1 <0>        -0.1800
      6 C6         -1.7931   -0.9756   -2.3902 C.ar      1 <0>         0.1891
      7 C7         -1.4342   -2.3161   -2.3256 C.ar      1 <0>        -0.1739
      8 C8         -1.0455   -2.9918   -3.4725 C.ar      1 <0>         0.1781
      9 O1         -0.6969   -4.2923   -3.4121 O.3       1 <0>        -0.2605
     10 C9         -0.3273   -4.9429   -4.5198 C.2       1 <0>         0.5129
     11 O2         -0.0181   -6.1176   -4.4301 O.2       1 <0>        -0.4478
     12 C10        -0.2797   -4.3282   -5.7862 C.2       1 <0>        -0.1894
     13 C11         0.1441   -5.1190   -6.9971 C.3       1 <0>        -0.0834
     14 C12        -1.0667   -5.7535   -7.6316 C.2       1 <0>         0.5240
     15 O3         -2.1654   -5.5806   -7.1481 O.2       1 <0>        -0.5393
     16 N1         -0.9284   -6.5131   -8.7363 N.am      1 <0>        -0.6970
     17 C13        -2.1054   -7.1299   -9.3531 C.3       1 <0>         0.1212
     18 H1         -2.9609   -6.4621   -9.2515 H         1 <0>         0.0972
     19 C14        -1.8298   -7.3837  -10.8365 C.3       1 <0>        -0.0632
     20 S1         -1.4693   -5.8094  -11.6625 S.3       1 <0>        -0.2764
     21 C15        -1.1695   -6.2783  -13.3890 C.3       1 <0>        -0.1218
     22 C16        -2.4049   -8.4378   -8.6669 C.2       1 <0>         0.4624
     23 O4         -1.7068   -8.8158   -7.7560 O.co2     1 <0>        -0.6140
     24 O5         -2.1789   -0.3604   -1.2424 O.3       1 <0>        -0.2936
     25 C17        -2.1882    1.0661   -1.2191 C.3       1 <0>         0.1208
     26 C18        -0.7529    1.5928   -1.2317 C.3       1 <0>        -0.1409
     27 C19        -0.0127    1.0858    0.0080 C.3       1 <0>        -0.1190
     28 C20        -0.7289    1.5793    1.2667 C.3       1 <0>        -0.1191
     29 C21        -2.1646    1.0504    1.2782 C.3       1 <0>        -0.1205
     30 C22        -2.9050    1.5580    0.0389 C.3       1 <0>        -0.1035
     31 C23        -2.9304    1.5714   -2.4613 C.3       1 <0>        -0.1497
     32 C24        -2.1321    1.1603   -3.7007 C.3       1 <0>        -0.0747
     33 H2          0.4064   -1.8903   -7.4044 H         1 <0>         0.0883
     34 H3         -0.7877   -3.0488   -8.0369 H         1 <0>         0.0849
     35 H4         -1.3331   -1.5375   -7.2709 H         1 <0>         0.0789
     36 H5         -1.3565   -0.4207   -5.6870 H         1 <0>         0.1409
     37 H6         -1.4594   -2.8345   -1.3785 H         1 <0>         0.1485
     38 H7          0.6244   -4.4544   -7.7152 H         1 <0>         0.1059
     39 H8          0.8460   -5.8966   -6.6958 H         1 <0>         0.1122
     40 H9         -0.0496   -6.6514   -9.1229 H         1 <0>         0.3949
     41 H10        -0.9743   -8.0515  -10.9381 H         1 <0>         0.0803
     42 H11        -2.7055   -7.8427  -11.2954 H         1 <0>         0.1034
     43 H12        -2.0591   -6.7605  -13.7943 H         1 <0>         0.0740
     44 H13        -0.9413   -5.3868  -13.9732 H         1 <0>         0.0957
     45 H14        -0.3279   -6.9694  -13.4369 H         1 <0>         0.0728
     46 H15        -0.7658    2.6827   -1.2268 H         1 <0>         0.0777
     47 H16        -0.2441    1.2394   -2.1285 H         1 <0>         0.0728
     48 H17         0.0021   -0.0041    0.0020 H         1 <0>         0.0687
     49 H18         1.0099    1.4631    0.0003 H         1 <0>         0.0630
     50 H19        -0.2016    1.2182    2.1497 H         1 <0>         0.0628
     51 H20        -0.7433    2.6691    1.2727 H         1 <0>         0.0600
     52 H21        -2.6741    1.4021    2.1753 H         1 <0>         0.0639
     53 H22        -2.1504   -0.0395    1.2721 H         1 <0>         0.0721
     54 H23        -2.9204    2.6478    0.0458 H         1 <0>         0.0827
     55 H24        -3.9273    1.1798    0.0461 H         1 <0>         0.0739
     56 H25        -3.9248    1.1269   -2.5010 H         1 <0>         0.0798
     57 H26        -3.0144    2.6575   -2.4223 H         1 <0>         0.0861
     58 H27        -2.7383    1.3210   -4.5922 H         1 <0>         0.0842
     59 H28        -1.2266    1.7636   -3.7653 H         1 <0>         0.0810
     60 O6         -3.4471   -9.1827   -9.0675 O.co2     1 <0>        -0.7628
@<TRIPOS>BOND
     1    1    2 1
     2    1   33 1
     3    1   34 1
     4    1   35 1
     5    2   12 2
     6    2    3 1
     7    3    8 ar
     8    3    4 ar
     9    4    5 ar
    10    4   36 1
    11    5   32 1
    12    5    6 ar
    13    6    7 ar
    14    6   24 1
    15    7    8 ar
    16    7   37 1
    17    8    9 1
    18    9   10 1
    19   10   11 2
    20   10   12 1
    21   12   13 1
    22   13   14 1
    23   13   38 1
    24   13   39 1
    25   14   15 2
    26   14   16 am
    27   16   17 1
    28   16   40 1
    29   17   18 1
    30   17   19 1
    31   17   22 1
    32   19   20 1
    33   19   41 1
    34   19   42 1
    35   20   21 1
    36   21   43 1
    37   21   44 1
    38   21   45 1
    39   22   23 2
    40   22   60 1
    41   24   25 1
    42   25   30 1
    43   25   26 1
    44   25   31 1
    45   26   27 1
    46   26   46 1
    47   26   47 1
    48   27   28 1
    49   27   48 1
    50   27   49 1
    51   28   29 1
    52   28   50 1
    53   28   51 1
    54   29   30 1
    55   29   52 1
    56   29   53 1
    57   30   54 1
    58   30   55 1
    59   31   32 1
    60   31   56 1
    61   31   57 1
    62   32   58 1
    63   32   59 1
@<TRIPOS>MOLECULE
ZINC13206060
   55    58     0     0     0
SMALL
USER_CHARGES
2-[3-[2-[(1-acetylindolin-5-yl)amino]-2-oxo-ethyl]sulfanyl-5-(p-tolyl)-1,2,4-triazol-4-yl]acetic acid
@<TRIPOS>ATOM
      1 C1         -4.5481   -3.8395    0.3472 C.3       1 <0>        -0.1129
      2 C2         -3.8352   -2.5766    0.7572 C.ar      1 <0>        -0.0807
      3 C3         -4.1003   -2.0049    1.9889 C.ar      1 <0>        -0.1257
      4 C4         -3.4512   -0.8489    2.3703 C.ar      1 <0>        -0.0754
      5 C5         -2.5256   -0.2558    1.5103 C.ar      1 <0>        -0.0151
      6 C6         -2.2670   -0.8345    0.2668 C.ar      1 <0>        -0.0985
      7 C7         -2.9188   -1.9938   -0.1000 C.ar      1 <0>        -0.1158
      8 C8         -1.8266    0.9833    1.9123 C.2       1 <0>         0.2284
      9 N1         -2.1962    1.8161    2.8572 N.2       1 <0>        -0.2793
     10 N2         -1.3582    2.7870    2.9388 N.2       1 <0>        -0.3027
     11 C9         -0.3988    2.6305    2.0540 C.2       1 <0>         0.1482
     12 N3         -0.6659    1.4812    1.3665 N.pl3     1 <0>        -0.4149
     13 C10         0.1226    0.8969    0.2788 C.3       1 <0>         0.0411
     14 C11        -0.3512    1.4523   -1.0396 C.2       1 <0>         0.4553
     15 O1         -1.2548    2.2540   -1.0677 O.co2     1 <0>        -0.6069
     16 S1          0.9744    3.7051    1.8003 S.3       1 <0>         0.0903
     17 C12         0.6289    4.9592    3.0589 C.3       1 <0>        -0.1514
     18 C13         1.7052    6.0135    3.0262 C.2       1 <0>         0.5360
     19 O2          2.6162    5.9256    2.2303 O.2       1 <0>        -0.4991
     20 N4          1.6554    7.0540    3.8814 N.am      1 <0>        -0.6666
     21 C14         2.6001    8.0839    3.7870 C.ar      1 <0>         0.1296
     22 C15         3.9106    7.7979    3.4268 C.ar      1 <0>        -0.0909
     23 C16         4.8383    8.8117    3.3294 C.ar      1 <0>        -0.1093
     24 C17         4.4730   10.1318    3.6016 C.ar      1 <0>         0.1267
     25 C18         3.1650   10.4092    3.9654 C.ar      1 <0>        -0.1210
     26 C19         2.2323    9.3946    4.0585 C.ar      1 <0>        -0.1024
     27 C20         3.0361   11.8973    4.2018 C.3       1 <0>        -0.0836
     28 C21         4.4417   12.4565    3.9285 C.3       1 <0>         0.1015
     29 N5          5.2549   11.2927    3.5662 N.am      1 <0>        -0.5566
     30 C22         6.5633   11.3338    3.2453 C.2       1 <0>         0.5177
     31 O3          7.1274   10.3279    2.8697 O.2       1 <0>        -0.5202
     32 C23         7.3252   12.6295    3.3530 C.3       1 <0>        -0.1686
     33 H1         -5.4708   -3.5831   -0.1735 H         1 <0>         0.0703
     34 H2         -3.9064   -4.4203   -0.3153 H         1 <0>         0.0664
     35 H3         -4.7829   -4.4283    1.2339 H         1 <0>         0.0650
     36 H4         -4.8168   -2.4649    2.6534 H         1 <0>         0.1260
     37 H5         -3.6590   -0.4036    3.3321 H         1 <0>         0.1336
     38 H6         -1.5552   -0.3781   -0.4051 H         1 <0>         0.1386
     39 H7         -2.7164   -2.4450   -1.0601 H         1 <0>         0.1279
     40 H8         -0.0005   -0.1861    0.2820 H         1 <0>         0.1094
     41 H9          1.1749    1.1434    0.4198 H         1 <0>         0.1044
     42 H10        -0.3378    5.4203    2.8565 H         1 <0>         0.1298
     43 H11         0.6090    4.4906    4.0428 H         1 <0>         0.1279
     44 H12         0.9654    7.0896    4.5622 H         1 <0>         0.4144
     45 H13         4.2020    6.7790    3.2187 H         1 <0>         0.1468
     46 H14         5.8548    8.5837    3.0446 H         1 <0>         0.1420
     47 H15         1.2155    9.6213    4.3432 H         1 <0>         0.1309
     48 H16         2.3135   12.3307    3.5104 H         1 <0>         0.0930
     49 H17         2.7425   12.0943    5.2329 H         1 <0>         0.0927
     50 H18         4.8403   12.9320    4.8247 H         1 <0>         0.0845
     51 H19         4.4130   13.1691    3.1041 H         1 <0>         0.0845
     52 H20         7.8234   12.6785    4.3212 H         1 <0>         0.0987
     53 H21         8.0696   12.6804    2.5584 H         1 <0>         0.0983
     54 H22         6.6338   13.4666    3.2574 H         1 <0>         0.0815
     55 O4          0.2306    1.0564   -2.1826 O.co2     1 <0>        -0.7437
@<TRIPOS>BOND
     1    1    2 1
     2    1   33 1
     3    1   34 1
     4    1   35 1
     5    2    7 ar
     6    2    3 ar
     7    3    4 ar
     8    3   36 1
     9    4    5 ar
    10    4   37 1
    11    5    6 ar
    12    5    8 1
    13    6    7 ar
    14    6   38 1
    15    7   39 1
    16    8   12 1
    17    8    9 2
    18    9   10 1
    19   10   11 2
    20   11   12 1
    21   11   16 1
    22   12   13 1
    23   13   14 1
    24   13   40 1
    25   13   41 1
    26   14   15 2
    27   14   55 1
    28   16   17 1
    29   17   18 1
    30   17   42 1
    31   17   43 1
    32   18   19 2
    33   18   20 am
    34   20   21 1
    35   20   44 1
    36   21   26 ar
    37   21   22 ar
    38   22   23 ar
    39   22   45 1
    40   23   24 ar
    41   23   46 1
    42   24   29 1
    43   24   25 ar
    44   25   26 ar
    45   25   27 1
    46   26   47 1
    47   27   28 1
    48   27   48 1
    49   27   49 1
    50   28   29 1
    51   28   50 1
    52   28   51 1
    53   29   30 am
    54   30   31 2
    55   30   32 1
    56   32   52 1
    57   32   53 1
    58   32   54 1
@<TRIPOS>MOLECULE
ZINC13404147
   53    56     0     0     0
SMALL
USER_CHARGES
(E)-3-[4-[[(2S)-1-(2,3-dihydro-1,4-benzodioxin-6-ylsulfonyl)pyrrolidine-2-carbonyl]amino]phenyl]prop-2-enoic acid
@<TRIPOS>ATOM
      1 C1         -1.6521    6.4306   -3.2851 C.ar      1 <0>        -0.0957
      2 C2         -0.2797    6.3605   -3.2126 C.ar      1 <0>        -0.1418
      3 C3          0.3470    5.1340   -3.0128 C.ar      1 <0>         0.1302
      4 C4         -0.4101    3.9726   -2.8907 C.ar      1 <0>        -0.1157
      5 C5         -1.7832    4.0338   -2.9566 C.ar      1 <0>        -0.0990
      6 C6         -2.4181    5.2655   -3.1574 C.ar      1 <0>        -0.0490
      7 C7         -3.8839    5.3353   -3.2336 C.2       1 <0>        -0.1123
      8 C8         -4.6211    4.2099   -3.1102 C.2       1 <0>        -0.1443
      9 C9         -6.0353    4.2772   -3.1837 C.2       1 <0>         0.4698
     10 O1         -6.5851    5.3483   -3.3579 O.co2     1 <0>        -0.6385
     11 N1          1.7382    5.0678   -2.9405 N.am      1 <0>        -0.6645
     12 C10         2.3290    4.1511   -2.1486 C.2       1 <0>         0.4989
     13 O2          1.6526    3.4331   -1.4431 O.2       1 <0>        -0.4967
     14 C11         3.8301    4.0182   -2.1399 C.3       1 <0>         0.1370
     15 H1          4.2898    5.0032   -2.2210 H         1 <0>         0.0999
     16 C12         4.2882    3.1269   -3.3135 C.3       1 <0>        -0.1168
     17 C13         4.4618    1.7366   -2.6469 C.3       1 <0>        -0.1279
     18 C14         4.9974    2.1308   -1.2454 C.3       1 <0>         0.1138
     19 N2          4.2669    3.3633   -0.8981 N.pl3     1 <0>        -0.9905
     20 S1          3.9903    3.9215    0.6362 S.o2      1 <0>         2.7095
     21 O3          3.9404    2.7798    1.4809 O.2       1 <0>        -0.9430
     22 O4          2.9171    4.8483    0.5439 O.2       1 <0>        -0.9306
     23 C15         5.4119    4.8436    1.1193 C.ar      1 <0>        -0.6792
     24 C16         5.5223    6.1761    0.7678 C.ar      1 <0>        -0.0139
     25 C17         6.6364    6.9023    1.1437 C.ar      1 <0>        -0.1329
     26 C18         7.6473    6.2955    1.8743 C.ar      1 <0>         0.1057
     27 C19         7.5353    4.9566    2.2295 C.ar      1 <0>         0.0302
     28 C20         6.4150    4.2333    1.8481 C.ar      1 <0>        -0.0120
     29 O5          8.5112    4.3444    2.9544 O.3       1 <0>        -0.3023
     30 C21         9.7859    4.9955    2.9963 C.3       1 <0>         0.0190
     31 C22         9.5546    6.4857    3.2812 C.3       1 <0>         0.0169
     32 O6          8.7416    7.0218    2.2317 O.3       1 <0>        -0.3017
     33 H2         -2.1376    7.3828   -3.4398 H         1 <0>         0.1283
     34 H3          0.3120    7.2587   -3.3106 H         1 <0>         0.1226
     35 H4          0.0807    3.0224   -2.7402 H         1 <0>         0.1323
     36 H5         -2.3702    3.1327   -2.8576 H         1 <0>         0.1310
     37 H6         -4.3719    6.2863   -3.3883 H         1 <0>         0.1283
     38 H7         -4.1330    3.2589   -2.9556 H         1 <0>         0.1065
     39 H8          2.2807    5.6815   -3.4602 H         1 <0>         0.4075
     40 H9          3.5245    3.0895   -4.0903 H         1 <0>         0.0889
     41 H10         5.2342    3.4828   -3.7216 H         1 <0>         0.0923
     42 H11         3.5064    1.2173   -2.5719 H         1 <0>         0.0845
     43 H12         5.1910    1.1327   -3.1869 H         1 <0>         0.0897
     44 H13         6.0693    2.3240   -1.2869 H         1 <0>         0.0729
     45 H14         4.7805    1.3447   -0.5220 H         1 <0>         0.0895
     46 H15         4.7364    6.6505    0.1989 H         1 <0>         0.1490
     47 H16         6.7202    7.9431    0.8680 H         1 <0>         0.1471
     48 H17         6.3266    3.1920    2.1207 H         1 <0>         0.1539
     49 H18        10.2908    4.8787    2.0374 H         1 <0>         0.0807
     50 H19        10.3955    4.5602    3.7881 H         1 <0>         0.1274
     51 H20        10.5112    7.0076    3.3082 H         1 <0>         0.1279
     52 H21         9.0446    6.6023    4.2374 H         1 <0>         0.0834
     53 O7         -6.7716    3.1532   -3.0605 O.co2     1 <0>        -0.7659
@<TRIPOS>BOND
     1    1    6 ar
     2    1    2 ar
     3    1   33 1
     4    2    3 ar
     5    2   34 1
     6    3    4 ar
     7    3   11 1
     8    4    5 ar
     9    4   35 1
    10    5    6 ar
    11    5   36 1
    12    6    7 1
    13    7    8 2
    14    7   37 1
    15    8    9 1
    16    8   38 1
    17    9   10 2
    18    9   53 1
    19   11   12 am
    20   11   39 1
    21   12   13 2
    22   12   14 1
    23   14   15 1
    24   14   19 1
    25   14   16 1
    26   16   17 1
    27   16   40 1
    28   16   41 1
    29   17   18 1
    30   17   42 1
    31   17   43 1
    32   18   19 1
    33   18   44 1
    34   18   45 1
    35   19   20 1
    36   20   21 2
    37   20   22 2
    38   20   23 1
    39   23   28 ar
    40   23   24 ar
    41   24   25 ar
    42   24   46 1
    43   25   26 ar
    44   25   47 1
    45   26   32 1
    46   26   27 ar
    47   27   28 ar
    48   27   29 1
    49   28   48 1
    50   29   30 1
    51   30   31 1
    52   30   49 1
    53   30   50 1
    54   31   32 1
    55   31   51 1
    56   31   52 1
@<TRIPOS>MOLECULE
ZINC00627478
   58    61     0     0     0
SMALL
USER_CHARGES

@<TRIPOS>ATOM
      1 C1          0.4030    1.5695   -0.0097 C.ar      1 <0>        -0.1556
      2 C2          1.6721    2.1237    0.0368 C.ar      1 <0>        -0.0776
      3 C3          2.7888    1.3126    0.0427 C.ar      1 <0>        -0.1380
      4 C4          2.6462   -0.0679    0.0025 C.ar      1 <0>         0.2175
      5 C5          1.3629   -0.6323   -0.0442 C.ar      1 <0>        -0.1764
      6 C6          0.2422    0.2015   -0.0501 C.ar      1 <0>        -0.0686
      7 C7          1.1978   -2.0976   -0.0877 C.2       1 <0>         0.5708
      8 O1          1.5752   -2.7799    0.8453 O.2       1 <0>        -0.5279
      9 N1          0.6286   -2.6800   -1.1617 N.am      1 <0>        -0.6052
     10 C8          0.2791   -1.8841   -2.3467 C.3       1 <0>         0.0948
     11 C9          0.9545   -2.5092   -3.5736 C.3       1 <0>         0.0997
     12 N2          0.6728   -3.9516   -3.5808 N.pl3     1 <0>        -0.6191
     13 C10         1.0224   -4.7475   -2.3958 C.3       1 <0>         0.1030
     14 C11         0.3521   -4.1234   -1.1711 C.3       1 <0>         0.0987
     15 C12         0.0827   -4.5555   -4.6943 C.ar      1 <0>         0.2334
     16 C13        -0.3425   -3.7779   -5.7638 C.ar      1 <0>        -0.1908
     17 C14        -0.9249   -4.3774   -6.8632 C.ar      1 <0>        -0.0573
     18 C15        -1.0855   -5.7514   -6.8997 C.ar      1 <0>        -0.0997
     19 C16        -0.6628   -6.5285   -5.8356 C.ar      1 <0>        -0.0580
     20 C17        -0.0745   -5.9349   -4.7361 C.ar      1 <0>        -0.1919
     21 Cl1        -1.8190   -6.5015   -8.2828 Cl        1 <0>        -0.0877
     22 N3          3.7718   -0.8884    0.0079 N.am      1 <0>        -0.6534
     23 C18         4.9286   -0.4418    0.5359 C.2       1 <0>         0.5379
     24 O2          4.9621    0.6285    1.1052 O.2       1 <0>        -0.5197
     25 C19         6.1805   -1.2725    0.4189 C.3       1 <0>        -0.0858
     26 H1          5.9139   -2.3241    0.3138 H         1 <0>         0.0962
     27 C20         7.0425   -1.0828    1.6690 C.3       1 <0>        -0.0699
     28 C21         7.6298    0.2981    1.6872 C.2       1 <0>        -0.1549
     29 C22         7.6987    1.0706    0.6509 C.2       1 <0>        -0.1349
     30 C23         7.1919    0.6973   -0.7114 C.3       1 <0>        -0.0670
     31 C24         6.9869   -0.8201   -0.8051 C.3       1 <0>        -0.1444
     32 H2          7.9562   -1.3188   -0.8100 H         1 <0>         0.0782
     33 C25         6.2311   -1.1603   -2.0637 C.2       1 <0>         0.4982
     34 O3          6.3604   -0.4675   -3.0585 O.co2     1 <0>        -0.6894
     35 O4          5.4903   -2.1284   -2.0870 O.co2     1 <0>        -0.6968
     36 H3         -0.4645    2.2127   -0.0097 H         1 <0>         0.1244
     37 H4          1.7882    3.1970    0.0682 H         1 <0>         0.1262
     38 H5          3.7747    1.7522    0.0784 H         1 <0>         0.1523
     39 H6         -0.7492   -0.2255   -0.0863 H         1 <0>         0.1243
     40 H7         -0.8023   -1.8870   -2.4833 H         1 <0>         0.0733
     41 H8          0.6312   -0.8608   -2.2169 H         1 <0>         0.1009
     42 H9          0.5576   -2.0545   -4.4811 H         1 <0>         0.0963
     43 H10         2.0311   -2.3470   -3.5208 H         1 <0>         0.0845
     44 H11         0.6703   -5.7709   -2.5255 H         1 <0>         0.0950
     45 H12         2.1038   -4.7446   -2.2592 H         1 <0>         0.0781
     46 H13         0.7524   -4.5784   -0.2651 H         1 <0>         0.1043
     47 H14        -0.7240   -4.2893   -1.2220 H         1 <0>         0.0710
     48 H15        -0.2181   -2.7055   -5.7355 H         1 <0>         0.1327
     49 H16        -1.2557   -3.7733   -7.6951 H         1 <0>         0.1298
     50 H17        -0.7893   -7.6006   -5.8668 H         1 <0>         0.1292
     51 H18         0.2593   -6.5423   -3.9078 H         1 <0>         0.1315
     52 H19         3.7231   -1.7811   -0.3683 H         1 <0>         0.4218
     53 H20         6.4270   -1.2254    2.5572 H         1 <0>         0.0662
     54 H21         7.8474   -1.8177    1.6678 H         1 <0>         0.0761
     55 H22         8.0194    0.6703    2.6232 H         1 <0>         0.0939
     56 H23         8.1494    2.0444    0.7742 H         1 <0>         0.0929
     57 H24         6.2421    1.2000   -0.8938 H         1 <0>         0.0666
     58 H25         7.9149    1.0110   -1.4644 H         1 <0>         0.0700
@<TRIPOS>BOND
     1    1    6 ar
     2    1    2 ar
     3    1   36 1
     4    2    3 ar
     5    2   37 1
     6    3    4 ar
     7    3   38 1
     8    4    5 ar
     9    4   22 1
    10    5    6 ar
    11    5    7 1
    12    6   39 1
    13    7    8 2
    14    7    9 am
    15    9   14 1
    16    9   10 1
    17   10   11 1
    18   10   40 1
    19   10   41 1
    20   11   12 1
    21   11   42 1
    22   11   43 1
    23   12   13 1
    24   12   15 1
    25   13   14 1
    26   13   44 1
    27   13   45 1
    28   14   46 1
    29   14   47 1
    30   15   20 ar
    31   15   16 ar
    32   16   17 ar
    33   16   48 1
    34   17   18 ar
    35   17   49 1
    36   18   19 ar
    37   18   21 1
    38   19   20 ar
    39   19   50 1
    40   20   51 1
    41   22   23 am
    42   22   52 1
    43   23   24 2
    44   23   25 1
    45   25   26 1
    46   25   31 1
    47   25   27 1
    48   27   28 1
    49   27   53 1
    50   27   54 1
    51   28   29 2
    52   28   55 1
    53   29   30 1
    54   29   56 1
    55   30   31 1
    56   30   57 1
    57   30   58 1
    58   31   32 1
    59   31   33 1
    60   33   34 2
    61   33   35 1
@<TRIPOS>MOLECULE
ZINC39724243
   52    55     0     0     0
SMALL
USER_CHARGES

@<TRIPOS>ATOM
      1 C1         -0.0187    1.5258    0.0104 C.3       1 <0>        -0.1448
      2 C2          0.0021   -0.0041    0.0020 C.3       1 <0>        -0.0651
      3 C3         -1.4117   -0.5257    0.0127 C.2       1 <0>        -0.1198
      4 C4         -2.0462   -0.8619   -1.1218 C.2       1 <0>        -0.0939
      5 S1         -3.7005   -1.3443   -0.6148 S.3       1 <0>        -0.1345
      6 C5         -3.6912   -0.4796    1.0023 C.3       1 <0>         0.1125
      7 H1         -3.9843    0.5677    0.9299 H         1 <0>         0.1208
      8 C6         -2.1601   -0.6966    1.2659 C.3       1 <0>        -0.1236
      9 H2         -2.0682   -1.7518    1.5232 H         1 <0>         0.1200
     10 C7         -1.8359    0.0293    2.5203 C.2       1 <0>         0.5532
     11 O1         -0.8338    0.6968    2.6636 O.2       1 <0>        -0.4677
     12 N1         -2.7829   -0.1294    3.5014 N.am      1 <0>        -0.5734
     13 C8         -3.8449   -0.9962    3.2893 C.2       1 <0>         0.3428
     14 N2         -4.3678   -1.1823    2.0787 N.2       1 <0>        -0.5196
     15 S2         -4.5454   -1.8457    4.6649 S.3       1 <0>         0.1020
     16 C9         -5.8727   -2.8437    3.9348 C.3       1 <0>        -0.0721
     17 C10        -6.5631   -3.6311    5.0184 C.2       1 <0>         0.3829
     18 N3         -7.5887   -4.4517    4.6834 N.am      1 <0>        -0.6321
     19 H3         -7.8602   -4.5176    3.7545 H         1 <0>         0.4170
     20 C11        -8.2385   -5.1779    5.6138 C.2       1 <0>         0.5603
     21 O2         -9.1584   -5.9130    5.3023 O.2       1 <0>        -0.5118
     22 C12        -7.8047   -5.0595    7.0254 C.2       1 <0>        -0.2130
     23 C13        -8.3104   -5.6988    8.1573 C.2       1 <0>        -0.0611
     24 C14        -7.7520   -5.4414    9.3892 C.2       1 <0>        -0.1602
     25 S3         -6.4666   -4.2659    8.9998 S.3       1 <0>         0.1928
     26 C15        -6.7259   -4.1720    7.2462 C.2       1 <0>         0.0392
     27 N4         -6.1525   -3.5070    6.2513 N.2       1 <0>        -0.4618
     28 C16        -8.1097   -5.9763   10.6530 C.2       1 <0>         0.5519
     29 O3         -9.0291   -6.7814   10.7394 O.co2     1 <0>        -0.6549
     30 O4         -7.4994   -5.6334   11.6582 O.co2     1 <0>        -0.6759
     31 C17        -9.4606   -6.6645    8.0328 C.3       1 <0>        -0.1031
     32 C18        -2.6725    0.6096    4.7615 C.3       1 <0>         0.0987
     33 C19        -3.4026    1.9481    4.6334 C.3       1 <0>        -0.1679
     34 C20        -1.4895   -0.8386   -2.5220 C.3       1 <0>        -0.0808
     35 H4          1.0039    1.9031    0.0027 H         1 <0>         0.0575
     36 H5         -0.5459    1.8868   -0.8726 H         1 <0>         0.0486
     37 H6         -0.5289    1.8773    0.9072 H         1 <0>         0.0659
     38 H7          0.5123   -0.3556   -0.8948 H         1 <0>         0.0719
     39 H8          0.5293   -0.3651    0.8851 H         1 <0>         0.0756
     40 H9         -6.5936   -2.1880    3.4466 H         1 <0>         0.1333
     41 H10        -5.4498   -3.5294    3.2006 H         1 <0>         0.1324
     42 H11        -9.0745   -7.6695    7.8630 H         1 <0>         0.0618
     43 H12       -10.0474   -6.6510    8.9513 H         1 <0>         0.0978
     44 H13       -10.0920   -6.3713    7.1940 H         1 <0>         0.0637
     45 H14        -3.1216    0.0263    5.5654 H         1 <0>         0.0984
     46 H15        -1.6212    0.7893    4.9865 H         1 <0>         0.0985
     47 H16        -4.4539    1.7684    4.4084 H         1 <0>         0.0623
     48 H17        -3.3205    2.4979    5.5710 H         1 <0>         0.0801
     49 H18        -2.9535    2.5314    3.8296 H         1 <0>         0.0579
     50 H19        -1.0377   -1.8041   -2.7494 H         1 <0>         0.0796
     51 H20        -2.2940   -0.6382   -3.2296 H         1 <0>         0.0768
     52 H21        -0.7342   -0.0566   -2.5997 H         1 <0>         0.0810
@<TRIPOS>BOND
     1    1    2 1
     2    1   35 1
     3    1   36 1
     4    1   37 1
     5    2    3 1
     6    2   38 1
     7    2   39 1
     8    3    8 1
     9    3    4 2
    10    4    5 1
    11    4   34 1
    12    5    6 1
    13    6    7 1
    14    6   14 1
    15    6    8 1
    16    8    9 1
    17    8   10 1
    18   10   11 2
    19   10   12 am
    20   12   13 1
    21   12   32 1
    22   13   14 2
    23   13   15 1
    24   15   16 1
    25   16   17 1
    26   16   40 1
    27   16   41 1
    28   17   27 2
    29   17   18 1
    30   18   19 1
    31   18   20 am
    32   20   21 2
    33   20   22 1
    34   22   26 2
    35   22   23 1
    36   23   24 2
    37   23   31 1
    38   24   25 1
    39   24   28 1
    40   25   26 1
    41   26   27 1
    42   28   29 2
    43   28   30 1
    44   31   42 1
    45   31   43 1
    46   31   44 1
    47   32   33 1
    48   32   45 1
    49   32   46 1
    50   33   47 1
    51   33   48 1
    52   33   49 1
    53   34   50 1
    54   34   51 1
    55   34   52 1
@<TRIPOS>MOLECULE
ZINC64774544
   57    60     0     0     0
SMALL
USER_CHARGES

@<TRIPOS>ATOM
      1 C1          1.5637    1.1913   -0.2094 C.3       1 <0>        -0.1064
      2 C2          0.7377   -0.0673   -0.1412 C.ar      1 <0>        -0.1033
      3 C3         -0.3314   -0.2375   -1.0037 C.ar      1 <0>        -0.1124
      4 C4         -1.0952   -1.3875   -0.9498 C.ar      1 <0>        -0.1165
      5 C5         -0.7933   -2.3795   -0.0284 C.ar      1 <0>         0.1534
      6 C6          0.2879   -2.2101    0.8448 C.ar      1 <0>         0.0203
      7 C7          1.0539   -1.0478    0.7769 C.ar      1 <0>        -0.0658
      8 C8          0.6188   -3.2631    1.8329 C.ar      1 <0>         0.0062
      9 C9          0.8930   -2.9258    3.1713 C.ar      1 <0>         0.4500
     10 O1          0.8595   -1.6349    3.5804 O.3       1 <0>        -0.6563
     11 N1          1.1845   -3.8996    4.0240 N.ar      1 <0>        -0.5662
     12 C10         1.2099   -5.1571    3.5959 C.ar      1 <0>         0.2678
     13 N2          0.9481   -5.4532    2.3289 N.ar      1 <0>        -0.3999
     14 N3          0.6559   -4.5400    1.4703 N.ar      1 <0>        -0.2024
     15 S1          1.5974   -6.4511    4.7272 S.3       1 <0>         0.0306
     16 C11         1.5135   -7.9561    3.7180 C.3       1 <0>        -0.1023
     17 H1          0.5396   -8.0137    3.2319 H         1 <0>         0.1166
     18 C12         2.6129   -7.9191    2.6546 C.3       1 <0>        -0.1401
     19 C13         1.7074   -9.1632    4.5991 C.2       1 <0>         0.5499
     20 O2          2.3275   -9.0634    5.6367 O.2       1 <0>        -0.4962
     21 N4          1.1916  -10.3537    4.2341 N.am      1 <0>        -0.5523
     22 C14         0.5165  -10.6221    2.9616 C.3       1 <0>         0.0964
     23 C15         0.1160  -12.1052    3.0225 C.3       1 <0>        -0.0840
     24 C16         0.6119  -12.5784    4.3703 C.ar      1 <0>        -0.1399
     25 C17         1.2276  -11.5153    5.0119 C.ar      1 <0>         0.1517
     26 C18         1.7737  -11.7138    6.2811 C.ar      1 <0>        -0.1318
     27 C19         1.7030  -12.9526    6.8824 C.ar      1 <0>        -0.0936
     28 C20         1.0905  -14.0079    6.2322 C.ar      1 <0>        -0.1450
     29 C21         0.5396  -13.8167    4.9784 C.ar      1 <0>        -0.0805
     30 N5         -1.5652   -3.5429    0.0283 N.am      1 <0>        -0.6635
     31 C22        -1.9381   -4.0468    1.2214 C.2       1 <0>         0.5077
     32 O3         -1.6520   -3.4601    2.2436 O.2       1 <0>        -0.5066
     33 C23        -2.7105   -5.3392    1.2854 C.3       1 <0>        -0.1640
     34 C24        -2.2578   -1.5641   -1.8923 C.3       1 <0>        -0.1045
     35 H2          2.3833    1.0503   -0.9140 H         1 <0>         0.0638
     36 H3          0.9375    2.0193   -0.5413 H         1 <0>         0.0609
     37 H4          1.9679    1.4145    0.7780 H         1 <0>         0.0656
     38 H5         -0.5700    0.5327   -1.7223 H         1 <0>         0.1186
     39 H6          1.8917   -0.9128    1.4449 H         1 <0>         0.1268
     40 H7          3.5868   -7.8614    3.1407 H         1 <0>         0.0661
     41 H8          2.5625   -8.8234    2.0482 H         1 <0>         0.0592
     42 H9          2.4727   -7.0460    2.0173 H         1 <0>         0.0987
     43 H10        -0.3696   -9.9949    2.8640 H         1 <0>         0.0879
     44 H11         1.1974  -10.4483    2.1283 H         1 <0>         0.0884
     45 H12        -0.9670  -12.2095    2.9578 H         1 <0>         0.0917
     46 H13         0.6011  -12.6632    2.2216 H         1 <0>         0.0915
     47 H14         2.2538  -10.8937    6.7942 H         1 <0>         0.1401
     48 H15         2.1280  -13.0992    7.8644 H         1 <0>         0.1269
     49 H16         1.0368  -14.9774    6.7051 H         1 <0>         0.1245
     50 H17         0.0616  -14.6402    4.4687 H         1 <0>         0.1237
     51 H18        -1.8327   -3.9879   -0.7911 H         1 <0>         0.4029
     52 H19        -2.0147   -6.1753    1.3550 H         1 <0>         0.0952
     53 H20        -3.3588   -5.3321    2.1617 H         1 <0>         0.0863
     54 H21        -3.3169   -5.4450    0.3858 H         1 <0>         0.0741
     55 H22        -1.9013   -1.9792   -2.8351 H         1 <0>         0.0650
     56 H23        -2.9856   -2.2432   -1.4483 H         1 <0>         0.0599
     57 H24        -2.7272   -0.5975   -2.0754 H         1 <0>         0.0647
@<TRIPOS>BOND
     1    1    2 1
     2    1   35 1
     3    1   36 1
     4    1   37 1
     5    2    7 ar
     6    2    3 ar
     7    3    4 ar
     8    3   38 1
     9    4    5 ar
    10    4   34 1
    11    5    6 ar
    12    5   30 1
    13    6    7 ar
    14    6    8 1
    15    7   39 1
    16    8   14 ar
    17    8    9 ar
    18    9   10 1
    19    9   11 ar
    20   11   12 ar
    21   12   15 1
    22   12   13 ar
    23   13   14 ar
    24   15   16 1
    25   16   17 1
    26   16   18 1
    27   16   19 1
    28   18   40 1
    29   18   41 1
    30   18   42 1
    31   19   20 2
    32   19   21 am
    33   21   25 1
    34   21   22 1
    35   22   23 1
    36   22   43 1
    37   22   44 1
    38   23   24 1
    39   23   45 1
    40   23   46 1
    41   24   29 ar
    42   24   25 ar
    43   25   26 ar
    44   26   27 ar
    45   26   47 1
    46   27   28 ar
    47   27   48 1
    48   28   29 ar
    49   28   49 1
    50   29   50 1
    51   30   31 am
    52   30   51 1
    53   31   32 2
    54   31   33 1
    55   33   52 1
    56   33   53 1
    57   33   54 1
    58   34   55 1
    59   34   56 1
    60   34   57 1
@<TRIPOS>MOLECULE
ZINC15946760
   71    74     0     0     0
SMALL
USER_CHARGES
N-(2-ethylphenyl)-2-[[2-[(2S)-2-ethyl-1-piperidyl]acetyl]amino]-5,6,7,8-tetrahydro-4H-cyclohepta[d]thiophene-3-carboxamide
@<TRIPOS>ATOM
      1 C1         -1.4528   -2.5700   -4.2211 C.3       1 <0>        -0.1477
      2 C2         -2.6022   -2.8853   -3.2617 C.3       1 <0>        -0.0891
      3 C3         -2.0916   -3.7385   -2.1293 C.ar      1 <0>        -0.1066
      4 C4         -2.2014   -5.1139   -2.1959 C.ar      1 <0>        -0.0968
      5 C5         -1.7387   -5.8970   -1.1547 C.ar      1 <0>        -0.1268
      6 C6         -1.1596   -5.3070   -0.0459 C.ar      1 <0>        -0.1047
      7 C7         -1.0421   -3.9329    0.0246 C.ar      1 <0>        -0.1315
      8 C8         -1.5059   -3.1432   -1.0198 C.ar      1 <0>         0.1362
      9 N1         -1.3884   -1.7512   -0.9516 N.am      1 <0>        -0.6591
     10 C9         -1.3516   -1.1360    0.2470 C.2       1 <0>         0.5721
     11 O1         -1.3457   -1.7958    1.2698 O.2       1 <0>        -0.5007
     12 C10        -1.3188    0.3279    0.3188 C.2       1 <0>        -0.1905
     13 C11        -2.5481    1.1066    0.3848 C.2       1 <0>        -0.0655
     14 C12        -2.3726    2.4444    0.4318 C.2       1 <0>        -0.1751
     15 S1         -0.6155    2.6747    0.4098 S.3       1 <0>         0.2344
     16 C13        -0.1169    1.0181    0.3301 C.2       1 <0>         0.0328
     17 N2          1.1712    0.5069    0.2830 N.am      1 <0>        -0.5945
     18 C14         2.2286    1.3426    0.2921 C.2       1 <0>         0.5027
     19 O2          2.0536    2.5415    0.3465 O.2       1 <0>        -0.4897
     20 C15         3.6284    0.7873    0.2347 C.3       1 <0>        -0.0284
     21 C16         4.3461    2.6918   -1.0761 C.3       1 <0>        -0.0180
     22 C17         5.4500    3.7409   -1.2270 C.3       1 <0>        -0.1415
     23 C18         5.4628    4.6429    0.0102 C.3       1 <0>        -0.1377
     24 C19         5.6701    3.7809    1.2585 C.3       1 <0>        -0.1376
     25 C20         4.5598    2.7307    1.3374 C.3       1 <0>         0.0143
     26 H1          3.5930    3.2290    1.4093 H         1 <0>         0.1607
     27 C21         4.7745    1.8540    2.5728 C.3       1 <0>        -0.1475
     28 C22         4.6682    2.7143    3.8335 C.3       1 <0>        -0.1549
     29 C23        -3.4276    3.5054    0.4748 C.3       1 <0>        -0.0441
     30 C24        -4.4558    3.1529    1.5579 C.3       1 <0>        -0.1155
     31 C25        -5.5489    2.2969    0.9258 C.3       1 <0>        -0.1251
     32 C26        -4.9591    1.4227   -0.1790 C.3       1 <0>        -0.1243
     33 C27        -3.9274    0.4593    0.3973 C.3       1 <0>        -0.0605
     34 H2         -0.6698   -2.0328   -3.6858 H         1 <0>         0.0457
     35 H3         -1.0476   -3.4996   -4.6207 H         1 <0>         0.0620
     36 H4         -1.8221   -1.9528   -5.0401 H         1 <0>         0.0632
     37 H5         -3.3852   -3.4225   -3.7969 H         1 <0>         0.0814
     38 H6         -3.0074   -1.9557   -2.8621 H         1 <0>         0.0682
     39 H7         -2.6531   -5.5777   -3.0603 H         1 <0>         0.1282
     40 H8         -1.8301   -6.9719   -1.2070 H         1 <0>         0.1261
     41 H9         -0.7992   -5.9215    0.7658 H         1 <0>         0.1266
     42 H10        -0.5897   -3.4727    0.8906 H         1 <0>         0.1470
     43 H11        -1.3333   -1.2286   -1.7669 H         1 <0>         0.4110
     44 H12         1.3112   -0.4519    0.2395 H         1 <0>         0.4260
     45 H13         3.8293    0.2141    1.1398 H         1 <0>         0.1680
     46 H14         3.7264    0.1383   -0.6356 H         1 <0>         0.1639
     47 H15         4.3436    2.0390   -1.9489 H         1 <0>         0.1247
     48 H16         3.3803    3.1903   -0.9929 H         1 <0>         0.1496
     49 H17         5.2602    4.3438   -2.1151 H         1 <0>         0.1124
     50 H18         6.4149    3.2432   -1.3245 H         1 <0>         0.0859
     51 H19         4.5123    5.1710    0.0858 H         1 <0>         0.0840
     52 H20         6.2757    5.3644   -0.0734 H         1 <0>         0.0942
     53 H21         5.6375    4.4124    2.1464 H         1 <0>         0.1134
     54 H22         6.6382    3.2833    1.2012 H         1 <0>         0.0862
     55 H23         4.0145    1.0731    2.6007 H         1 <0>         0.0782
     56 H24         5.7631    1.3973    2.5269 H         1 <0>         0.0878
     57 H25         4.7280    2.0761    4.7151 H         1 <0>         0.0767
     58 H26         5.4853    3.4356    3.8511 H         1 <0>         0.0705
     59 H27         3.7157    3.2443    3.8325 H         1 <0>         0.0671
     60 H28        -2.9684    4.4661    0.7076 H         1 <0>         0.0785
     61 H29        -3.9246    3.5639   -0.4936 H         1 <0>         0.0967
     62 H30        -4.8928    4.0671    1.9597 H         1 <0>         0.0759
     63 H31        -3.9715    2.5954    2.3596 H         1 <0>         0.0678
     64 H32        -6.3163    2.9452    0.5028 H         1 <0>         0.0691
     65 H33        -5.9968    1.6609    1.6894 H         1 <0>         0.0673
     66 H34        -4.4816    2.0581   -0.9250 H         1 <0>         0.0735
     67 H35        -5.7602    0.8533   -0.6503 H         1 <0>         0.0708
     68 H36        -3.9059   -0.4499   -0.2035 H         1 <0>         0.0697
     69 H37        -4.1999    0.2078    1.4222 H         1 <0>         0.0839
     70 N3          4.6171    1.8802    0.1296 N.4       1 <0>        -0.3733
     71 H38         5.5567    1.4735    0.0531 H         1 <0>         0.4322
@<TRIPOS>BOND
     1    1    2 1
     2    1   34 1
     3    1   35 1
     4    1   36 1
     5    2    3 1
     6    2   37 1
     7    2   38 1
     8    3    8 ar
     9    3    4 ar
    10    4    5 ar
    11    4   39 1
    12    5    6 ar
    13    5   40 1
    14    6    7 ar
    15    6   41 1
    16    7    8 ar
    17    7   42 1
    18    8    9 1
    19    9   10 am
    20    9   43 1
    21   10   11 2
    22   10   12 1
    23   12   16 2
    24   12   13 1
    25   13   33 1
    26   13   14 2
    27   14   15 1
    28   14   29 1
    29   15   16 1
    30   16   17 1
    31   17   18 am
    32   17   44 1
    33   18   19 2
    34   18   20 1
    35   20   45 1
    36   20   46 1
    37   20   70 1
    38   21   22 1
    39   21   47 1
    40   21   48 1
    41   21   70 1
    42   22   23 1
    43   22   49 1
    44   22   50 1
    45   23   24 1
    46   23   51 1
    47   23   52 1
    48   24   25 1
    49   24   53 1
    50   24   54 1
    51   25   26 1
    52   25   27 1
    53   25   70 1
    54   27   28 1
    55   27   55 1
    56   27   56 1
    57   28   57 1
    58   28   58 1
    59   28   59 1
    60   29   30 1
    61   29   60 1
    62   29   61 1
    63   30   31 1
    64   30   62 1
    65   30   63 1
    66   31   32 1
    67   31   64 1
    68   31   65 1
    69   32   33 1
    70   32   66 1
    71   32   67 1
    72   33   68 1
    73   33   69 1
    74   70   71 1
@<TRIPOS>MOLECULE
ZINC03011436
   48    51     0     0     0
SMALL
USER_CHARGES

@<TRIPOS>ATOM
      1 C1         -1.2638    1.1893   -0.1464 C.3       1 <0>        -0.1225
      2 C2         -0.5833   -0.1533   -0.0727 C.ar      1 <0>        -0.1052
      3 C3          0.0167   -0.6918   -1.2037 C.ar      1 <0>         0.1597
      4 C4          0.6428   -1.9293   -1.1317 C.ar      1 <0>        -0.1227
      5 C5          0.6673   -2.6214    0.0636 C.ar      1 <0>        -0.0905
      6 C6          0.0695   -2.0836    1.1881 C.ar      1 <0>        -0.1230
      7 C7         -0.5506   -0.8478    1.1217 C.ar      1 <0>        -0.0172
      8 Cl1        -1.2939   -0.1731    2.5380 Cl        1 <0>        -0.0623
      9 N1         -0.0099    0.0107   -2.4127 N.am      1 <0>        -0.6539
     10 C8          0.0954   -0.6537   -3.5805 C.2       1 <0>         0.6056
     11 O1          0.1124   -1.8694   -3.5889 O.2       1 <0>        -0.4964
     12 C9          0.1901    0.0949   -4.8502 C.2       1 <0>         0.0643
     13 C10         0.2985   -0.4711   -6.1407 C.2       1 <0>        -0.2603
     14 C11         0.3608    0.5428   -7.0260 C.2       1 <0>         0.3680
     15 N2          0.2927    1.7180   -6.3326 N.pl3     1 <0>        -0.3928
     16 N3          0.1824    1.4104   -4.9772 N.2       1 <0>        -0.2502
     17 C12         0.3268    3.0391   -6.9663 C.3       1 <0>         0.1289
     18 H1          1.3278    3.4611   -6.8771 H         1 <0>         0.1367
     19 C13        -0.0366    2.8882   -8.4478 C.3       1 <0>        -0.1521
     20 C14         0.8069    1.7764   -9.0815 C.3       1 <0>         0.2024
     21 H2          1.8655    1.9965   -8.9439 H         1 <0>         0.0924
     22 N4          0.4757    0.4998   -8.4184 N.pl3     1 <0>        -0.7248
     23 C15         0.4967    1.6822  -10.5533 C.ar      1 <0>        -0.1008
     24 C16        -0.6397    1.0200  -10.9788 C.ar      1 <0>        -0.0908
     25 C17        -0.9247    0.9333  -12.3285 C.ar      1 <0>        -0.1067
     26 C18        -0.0725    1.5093  -13.2536 C.ar      1 <0>        -0.0257
     27 C19         1.0647    2.1720  -12.8271 C.ar      1 <0>        -0.1067
     28 C20         1.3457    2.2629  -11.4769 C.ar      1 <0>        -0.0872
     29 Cl2        -0.4295    1.4003  -14.9490 Cl        1 <0>        -0.0605
     30 C21        -0.6818    3.9627   -6.2803 C.3       1 <0>         0.4558
     31 F1         -0.3535    4.0878   -4.9261 F         1 <0>        -0.1600
     32 F2         -0.6476    5.2230   -6.8867 F         1 <0>        -0.1711
     33 F3         -1.9664    3.4220   -6.4007 F         1 <0>        -0.1719
     34 H3         -0.5430    1.9749    0.0801 H         1 <0>         0.0783
     35 H4         -1.6622    1.3401   -1.1497 H         1 <0>         0.0681
     36 H5         -2.0784    1.2239    0.5770 H         1 <0>         0.0806
     37 H6          1.1099   -2.3505   -2.0096 H         1 <0>         0.1526
     38 H7          1.1538   -3.5839    0.1195 H         1 <0>         0.1374
     39 H8          0.0901   -2.6268    2.1213 H         1 <0>         0.1352
     40 H9         -0.1041    0.9761   -2.4107 H         1 <0>         0.4204
     41 H10         0.3266   -1.5251   -6.3748 H         1 <0>         0.1653
     42 H11        -1.0934    2.6366   -8.5376 H         1 <0>         0.1017
     43 H12         0.1556    3.8281   -8.9653 H         1 <0>         0.1232
     44 H13         0.3452   -0.3204   -8.9194 H         1 <0>         0.4273
     45 H14        -1.3047    0.5700  -10.2566 H         1 <0>         0.1353
     46 H15        -1.8124    0.4156  -12.6609 H         1 <0>         0.1384
     47 H16         1.7305    2.6216  -13.5488 H         1 <0>         0.1395
     48 H17         2.2308    2.7843  -11.1435 H         1 <0>         0.1379
@<TRIPOS>BOND
     1    1    2 1
     2    1   34 1
     3    1   35 1
     4    1   36 1
     5    2    7 ar
     6    2    3 ar
     7    3    4 ar
     8    3    9 1
     9    4    5 ar
    10    4   37 1
    11    5    6 ar
    12    5   38 1
    13    6    7 ar
    14    6   39 1
    15    7    8 1
    16    9   10 am
    17    9   40 1
    18   10   11 2
    19   10   12 1
    20   12   16 2
    21   12   13 1
    22   13   14 2
    23   13   41 1
    24   14   22 1
    25   14   15 1
    26   15   16 1
    27   15   17 1
    28   17   18 1
    29   17   19 1
    30   17   30 1
    31   19   20 1
    32   19   42 1
    33   19   43 1
    34   20   21 1
    35   20   22 1
    36   20   23 1
    37   22   44 1
    38   23   28 ar
    39   23   24 ar
    40   24   25 ar
    41   24   45 1
    42   25   26 ar
    43   25   46 1
    44   26   27 ar
    45   26   29 1
    46   27   28 ar
    47   27   47 1
    48   28   48 1
    49   30   31 1
    50   30   32 1
    51   30   33 1
@<TRIPOS>MOLECULE
ZINC39677000
   74    77     0     0     0
SMALL
USER_CHARGES

@<TRIPOS>ATOM
      1 C1         -0.4647    1.7295    0.0969 C.3       1 <0>        -0.1531
      2 C2         -0.3215    0.2062    0.0940 C.3       1 <0>        -0.1155
      3 C3          0.4784   -0.2285   -1.1356 C.3       1 <0>        -0.0606
      4 H1          0.0049    0.1652   -2.0350 H         1 <0>         0.1092
      5 C4          1.8846    0.3039   -1.0342 C.ar      1 <0>        -0.0721
      6 C5          2.6882   -0.0647    0.0286 C.ar      1 <0>        -0.0872
      7 C6          3.9780    0.4237    0.1217 C.ar      1 <0>        -0.1206
      8 C7          4.4645    1.2802   -0.8482 C.ar      1 <0>        -0.1145
      9 C8          3.6612    1.6480   -1.9114 C.ar      1 <0>        -0.1204
     10 C9          2.3728    1.1563   -2.0068 C.ar      1 <0>        -0.1096
     11 C10         0.5149   -1.7335   -1.2049 C.2       1 <0>         0.5525
     12 O1          1.5780   -2.3164   -1.1748 O.2       1 <0>        -0.5207
     13 N1         -0.6339   -2.4317   -1.3003 N.am      1 <0>        -0.6181
     14 C11        -2.0167   -1.9020   -1.3568 C.3       1 <0>         0.1135
     15 C12        -2.7375   -2.8011   -2.3861 C.3       1 <0>        -0.1163
     16 H2         -3.7656   -2.9857   -2.0746 H         1 <0>         0.1172
     17 C13        -1.9355   -4.1133   -2.3904 C.3       1 <0>        -0.0722
     18 C14        -0.7993   -3.9030   -1.3789 C.3       1 <0>         0.1065
     19 C15        -2.8223   -5.2762   -1.9562 C.3       1 <0>        -0.1336
     20 C16        -2.0188   -6.5780   -2.0244 C.3       1 <0>        -0.0101
     21 N2         -1.5391   -6.7880   -3.3957 N.4       1 <0>        -0.5044
     22 C17        -0.6133   -5.7128   -3.7723 C.3       1 <0>        -0.0094
     23 C18        -1.3574   -4.3745   -3.7781 C.3       1 <0>        -0.1461
     24 C19        -2.7105   -2.1624   -3.7507 C.2       1 <0>         0.5150
     25 O2         -1.7869   -1.4417   -4.0648 O.2       1 <0>        -0.5161
     26 N3         -3.7126   -2.3919   -4.6222 N.am      1 <0>        -0.7298
     27 C20        -3.6863   -1.7710   -5.9488 C.3       1 <0>         0.1210
     28 C21        -4.9306   -2.1915   -6.7335 C.3       1 <0>        -0.0876
     29 C22        -4.9036   -1.5527   -8.0982 C.ar      1 <0>        -0.0879
     30 C23        -5.5671   -0.3596   -8.3162 C.ar      1 <0>        -0.1102
     31 C24        -5.5423    0.2263   -9.5678 C.ar      1 <0>        -0.0834
     32 C25        -4.8536   -0.3807  -10.6017 C.ar      1 <0>        -0.1128
     33 C26        -4.1896   -1.5730  -10.3835 C.ar      1 <0>        -0.1129
     34 C27        -4.2108   -2.1568   -9.1304 C.ar      1 <0>        -0.0894
     35 C28        -3.4824   -3.4542   -8.8911 C.3       1 <0>        -0.1153
     36 C29        -6.2663    1.5264   -9.8057 C.3       1 <0>        -0.1195
     37 H3          0.5241    2.1873    0.1262 H         1 <0>         0.0625
     38 H4         -0.9855    2.0472   -0.8063 H         1 <0>         0.0569
     39 H5         -1.0345    2.0391    0.9730 H         1 <0>         0.0614
     40 H6          0.1994   -0.1115    0.9973 H         1 <0>         0.0709
     41 H7         -1.3102   -0.2516    0.0647 H         1 <0>         0.0692
     42 H8          2.3081   -0.7338    0.7863 H         1 <0>         0.1150
     43 H9          4.6056    0.1364    0.9523 H         1 <0>         0.1223
     44 H10         5.4719    1.6623   -0.7751 H         1 <0>         0.1231
     45 H11         4.0411    2.3175   -2.6689 H         1 <0>         0.1235
     46 H12         1.7465    1.4407   -2.8394 H         1 <0>         0.1196
     47 H13        -2.4949   -1.9830   -0.3807 H         1 <0>         0.0909
     48 H14        -2.0131   -0.8655   -1.6943 H         1 <0>         0.0996
     49 H15         0.1184   -4.3705   -1.7362 H         1 <0>         0.0872
     50 H16        -1.0793   -4.3070   -0.4060 H         1 <0>         0.0835
     51 H17        -3.1630   -5.1121   -0.9339 H         1 <0>         0.1220
     52 H18        -3.6835   -5.3450   -2.6208 H         1 <0>         0.0973
     53 H19        -1.1669   -6.5147   -1.3474 H         1 <0>         0.1329
     54 H20        -2.6547   -7.4130   -1.7304 H         1 <0>         0.1401
     55 H21        -1.0623   -7.6755   -3.4516 H         1 <0>         0.4343
     56 H22         0.2052   -5.6701   -3.0536 H         1 <0>         0.1345
     57 H23        -0.2130   -5.9101   -4.7667 H         1 <0>         0.1381
     58 H24        -2.1660   -4.4109   -4.5081 H         1 <0>         0.0942
     59 H25        -0.6653   -3.5744   -4.0405 H         1 <0>         0.1236
     60 H26        -4.4513   -2.9683   -4.3711 H         1 <0>         0.3998
     61 H27        -3.6735   -0.6863   -5.8421 H         1 <0>         0.0747
     62 H28        -2.7932   -2.0940   -6.4836 H         1 <0>         0.0730
     63 H29        -4.9435   -3.2762   -6.8403 H         1 <0>         0.0780
     64 H30        -5.8238   -1.8684   -6.1988 H         1 <0>         0.0802
     65 H31        -6.1051    0.1146   -7.5086 H         1 <0>         0.1222
     66 H32        -4.8348    0.0768  -11.5798 H         1 <0>         0.1249
     67 H33        -3.6519   -2.0473  -11.1912 H         1 <0>         0.1238
     68 H34        -4.1520   -4.2898   -9.0948 H         1 <0>         0.0696
     69 H35        -2.6174   -3.5124   -9.5518 H         1 <0>         0.0674
     70 H36        -3.1509   -3.4988   -7.8537 H         1 <0>         0.0615
     71 H37        -5.5933    2.3595   -9.6030 H         1 <0>         0.0731
     72 H38        -6.5994    1.5723  -10.8425 H         1 <0>         0.0693
     73 H39        -7.1300    1.5877   -9.1436 H         1 <0>         0.0677
     74 H40        -2.3247   -6.7907   -4.0288 H         1 <0>         0.4272
@<TRIPOS>BOND
     1    1    2 1
     2    1   37 1
     3    1   38 1
     4    1   39 1
     5    2    3 1
     6    2   40 1
     7    2   41 1
     8    3    4 1
     9    3    5 1
    10    3   11 1
    11    5   10 ar
    12    5    6 ar
    13    6    7 ar
    14    6   42 1
    15    7    8 ar
    16    7   43 1
    17    8    9 ar
    18    8   44 1
    19    9   10 ar
    20    9   45 1
    21   10   46 1
    22   11   12 2
    23   11   13 am
    24   13   18 1
    25   13   14 1
    26   14   15 1
    27   14   47 1
    28   14   48 1
    29   15   16 1
    30   15   17 1
    31   15   24 1
    32   17   23 1
    33   17   18 1
    34   17   19 1
    35   18   49 1
    36   18   50 1
    37   19   20 1
    38   19   51 1
    39   19   52 1
    40   20   21 1
    41   20   53 1
    42   20   54 1
    43   21   22 1
    44   21   55 1
    45   21   74 1
    46   22   23 1
    47   22   56 1
    48   22   57 1
    49   23   58 1
    50   23   59 1
    51   24   25 2
    52   24   26 am
    53   26   27 1
    54   26   60 1
    55   27   28 1
    56   27   61 1
    57   27   62 1
    58   28   29 1
    59   28   63 1
    60   28   64 1
    61   29   34 ar
    62   29   30 ar
    63   30   31 ar
    64   30   65 1
    65   31   32 ar
    66   31   36 1
    67   32   33 ar
    68   32   66 1
    69   33   34 ar
    70   33   67 1
    71   34   35 1
    72   35   68 1
    73   35   69 1
    74   35   70 1
    75   36   71 1
    76   36   72 1
    77   36   73 1
@<TRIPOS>MOLECULE
ZINC59170665
   61    65     0     0     0
SMALL
USER_CHARGES

@<TRIPOS>ATOM
      1 C1          2.9080    3.0068   -0.0185 C.3       1 <0>        -0.1337
      2 C2          2.5521    1.6121   -0.4647 C.ar      1 <0>        -0.0040
      3 C3          2.9277    1.1710   -1.7198 C.ar      1 <0>        -0.1370
      4 C4          2.6013   -0.1083   -2.1292 C.ar      1 <0>        -0.0073
      5 C5          1.8997   -0.9468   -1.2833 C.ar      1 <0>        -0.7013
      6 C6          1.5249   -0.5060   -0.0278 C.ar      1 <0>        -0.0162
      7 C7          1.8550    0.7718    0.3832 C.ar      1 <0>        -0.1283
      8 S1          1.4826   -2.5771   -1.8055 S.o2      1 <0>         2.6630
      9 O1          0.4312   -3.0187   -0.9576 O.2       1 <0>        -0.9117
     10 O2          1.3518   -2.5296   -3.2196 O.2       1 <0>        -0.8909
     11 N1          2.7881   -3.5435   -1.4831 N.pl3     1 <0>        -0.9154
     12 N2          3.3222   -3.5907   -0.1888 N.pl3     1 <0>        -0.2973
     13 C8          4.4075   -4.2733    0.0437 C.2       1 <0>         0.5209
     14 C9          5.0566   -4.2462    1.3750 C.2       1 <0>        -0.2576
     15 C10         5.8040   -5.3429    1.7324 C.2       1 <0>         0.1332
     16 C11         5.8962   -6.4463    0.7687 C.ar      1 <0>        -0.1721
     17 C12         6.4042   -7.6905    1.1549 C.ar      1 <0>        -0.0258
     18 C13         6.4785   -8.7125    0.2330 C.ar      1 <0>        -0.1162
     19 C14         6.0531   -8.5121   -1.0708 C.ar      1 <0>        -0.0284
     20 C15         5.5495   -7.2871   -1.4659 C.ar      1 <0>        -0.1127
     21 C16         5.4680   -6.2467   -0.5555 C.ar      1 <0>         0.1218
     22 O3          4.9789   -5.0402   -0.9300 O.3       1 <0>        -0.2134
     23 C17         4.9076   -3.0925    2.2775 C.2       1 <0>         0.5762
     24 O4          4.1772   -2.1697    1.9696 O.2       1 <0>        -0.5177
     25 N3          5.5806   -3.0587    3.4447 N.am      1 <0>        -0.6433
     26 C18         5.3385   -2.0322    4.3613 C.ar      1 <0>         0.1211
     27 C19         4.0639   -1.4895    4.4747 C.ar      1 <0>        -0.1081
     28 C20         3.8227   -0.4770    5.3786 C.ar      1 <0>        -0.0936
     29 C21         4.8582    0.0025    6.1793 C.ar      1 <0>        -0.0344
     30 C22         6.1358   -0.5433    6.0639 C.ar      1 <0>        -0.0916
     31 C23         6.3713   -1.5593    5.1624 C.ar      1 <0>        -0.1254
     32 C24         4.6012    1.0923    7.1524 C.ar      1 <0>        -0.0586
     33 C25         3.3234    1.6354    7.2728 C.ar      1 <0>        -0.1078
     34 C26         3.0899    2.6488    8.1801 C.ar      1 <0>        -0.1167
     35 C27         4.1213    3.1255    8.9691 C.ar      1 <0>        -0.1106
     36 C28         5.3915    2.5901    8.8538 C.ar      1 <0>        -0.1162
     37 C29         5.6353    1.5728    7.9536 C.ar      1 <0>        -0.1074
     38 H1          3.8810    2.9940    0.4726 H         1 <0>         0.0860
     39 H2          2.9470    3.6667   -0.8851 H         1 <0>         0.0795
     40 H3          2.1532    3.3685    0.6799 H         1 <0>         0.0796
     41 H4          3.4758    1.8261   -2.3808 H         1 <0>         0.1412
     42 H5          2.8941   -0.4526   -3.1101 H         1 <0>         0.1439
     43 H6          0.9764   -1.1610    0.6330 H         1 <0>         0.1431
     44 H7          1.5654    1.1149    1.3654 H         1 <0>         0.1410
     45 H8          3.1831   -4.0769   -2.1905 H         1 <0>         0.4555
     46 H9          6.3050   -5.3912    2.6879 H         1 <0>         0.1886
     47 H10         6.7368   -7.8498    2.1700 H         1 <0>         0.1604
     48 H11         6.8707   -9.6745    0.5281 H         1 <0>         0.1572
     49 H12         6.1154   -9.3205   -1.7843 H         1 <0>         0.1617
     50 H13         5.2203   -7.1412   -2.4841 H         1 <0>         0.1611
     51 H14         6.2330   -3.7470    3.6485 H         1 <0>         0.4144
     52 H15         3.2620   -1.8610    3.8539 H         1 <0>         0.1351
     53 H16         2.8323   -0.0553    5.4662 H         1 <0>         0.1342
     54 H17         6.9396   -0.1731    6.6830 H         1 <0>         0.1364
     55 H18         7.3599   -1.9855    5.0758 H         1 <0>         0.1324
     56 H19         2.5175    1.2642    6.6570 H         1 <0>         0.1247
     57 H20         2.1002    3.0707    8.2740 H         1 <0>         0.1270
     58 H21         3.9341    3.9189    9.6775 H         1 <0>         0.1265
     59 H22         6.1931    2.9661    9.4723 H         1 <0>         0.1276
     60 H23         6.6264    1.1525    7.8675 H         1 <0>         0.1257
     61 H24         2.8840   -3.1152    0.5343 H         1 <0>         0.4820
@<TRIPOS>BOND
     1    1    2 1
     2    1   38 1
     3    1   39 1
     4    1   40 1
     5    2    7 ar
     6    2    3 ar
     7    3    4 ar
     8    3   41 1
     9    4    5 ar
    10    4   42 1
    11    5    6 ar
    12    5    8 1
    13    6    7 ar
    14    6   43 1
    15    7   44 1
    16    8    9 2
    17    8   10 2
    18    8   11 1
    19   11   12 1
    20   11   45 1
    21   12   13 2
    22   12   61 1
    23   13   22 1
    24   13   14 1
    25   14   15 2
    26   14   23 1
    27   15   16 1
    28   15   46 1
    29   16   21 ar
    30   16   17 ar
    31   17   18 ar
    32   17   47 1
    33   18   19 ar
    34   18   48 1
    35   19   20 ar
    36   19   49 1
    37   20   21 ar
    38   20   50 1
    39   21   22 1
    40   23   24 2
    41   23   25 am
    42   25   26 1
    43   25   51 1
    44   26   31 ar
    45   26   27 ar
    46   27   28 ar
    47   27   52 1
    48   28   29 ar
    49   28   53 1
    50   29   30 ar
    51   29   32 1
    52   30   31 ar
    53   30   54 1
    54   31   55 1
    55   32   37 ar
    56   32   33 ar
    57   33   34 ar
    58   33   56 1
    59   34   35 ar
    60   34   57 1
    61   35   36 ar
    62   35   58 1
    63   36   37 ar
    64   36   59 1
    65   37   60 1
@<TRIPOS>MOLECULE
ZINC63708503
   70    74     0     0     0
SMALL
USER_CHARGES

@<TRIPOS>ATOM
      1 C1         -0.0187    1.5258    0.0104 C.3       1 <0>        -0.1396
      2 C2          0.0021   -0.0041    0.0020 C.3       1 <0>        -0.0326
      3 C3          0.7421   -0.5109    1.2415 C.3       1 <0>        -0.1401
      4 C4         -1.4333   -0.5336    0.0129 C.3       1 <0>        -0.1460
      5 C5          0.7074   -0.4901   -1.2379 C.ar      1 <0>        -0.0557
      6 C6          0.0361   -1.2843   -2.1485 C.ar      1 <0>        -0.1205
      7 C7          0.6831   -1.7301   -3.2859 C.ar      1 <0>        -0.0964
      8 C8          2.0014   -1.3813   -3.5127 C.ar      1 <0>        -0.0871
      9 C9          2.6724   -0.5863   -2.6025 C.ar      1 <0>        -0.0930
     10 C10         2.0241   -0.1370   -1.4673 C.ar      1 <0>        -0.1136
     11 C11         2.7070   -1.8681   -4.7521 C.3       1 <0>        -0.0350
     12 S1          2.4756   -0.6664   -6.0911 S.3       1 <0>        -0.2395
     13 C12         3.3732   -1.3910   -7.4911 C.3       1 <0>         0.4178
     14 H1          3.2896   -0.7304   -8.3541 H         1 <0>         0.1438
     15 N1          4.7878   -1.5460   -7.1333 N.pl3     1 <0>        -0.7286
     16 C13         5.1571   -2.5984   -6.3030 C.ar      1 <0>         0.2207
     17 C14         6.2566   -2.5148   -5.4654 C.ar      1 <0>        -0.1739
     18 C15         6.5908   -3.5911   -4.6660 C.ar      1 <0>        -0.0436
     19 C16         5.8352   -4.7527   -4.6965 C.ar      1 <0>        -0.1604
     20 C17         4.7345   -4.8508   -5.5221 C.ar      1 <0>        -0.0176
     21 C18         4.3832   -3.7714   -6.3298 C.ar      1 <0>        -0.2002
     22 C19         3.2026   -3.8182   -7.2105 C.2       1 <0>         0.5805
     23 O1          2.6079   -4.8645   -7.3844 O.2       1 <0>        -0.5095
     24 N2          2.7902   -2.6923   -7.8189 N.am      1 <0>        -0.4173
     25 N3          1.7795   -2.7695   -8.7860 N.am      1 <0>        -0.5102
     26 C20         2.0567   -3.2526  -10.0133 C.2       1 <0>         0.5180
     27 O2          3.1810   -3.6203  -10.2806 O.2       1 <0>        -0.5097
     28 C21         0.9695   -3.3357  -11.0536 C.3       1 <0>        -0.1284
     29 C22         1.5449   -3.9148  -12.3476 C.3       1 <0>        -0.0780
     30 C23         0.4577   -3.9980  -13.3878 C.2       1 <0>         0.0726
     31 C24         0.1813   -3.0881  -14.3496 C.ar      1 <0>        -0.1715
     32 C25         0.7861   -1.7976  -14.7010 C.ar      1 <0>        -0.0110
     33 C26         0.2784   -1.0965  -15.7400 C.ar      1 <0>        -0.1521
     34 C27        -0.8085   -1.5699  -16.4878 C.ar      1 <0>         0.0544
     35 C28        -1.4170   -2.7460  -16.2256 C.ar      1 <0>        -0.2101
     36 C29        -0.9651   -3.5660  -15.1551 C.ar      1 <0>         0.3273
     37 N4         -1.3812   -4.7263  -14.7086 N.pl3     1 <0>        -0.5861
     38 C30        -0.5409   -5.1188  -13.5718 C.3       1 <0>         0.0588
     39 H2          1.0039    1.9031    0.0027 H         1 <0>         0.0576
     40 H3         -0.5459    1.8868   -0.8726 H         1 <0>         0.0563
     41 H4         -0.5289    1.8773    0.9072 H         1 <0>         0.0613
     42 H5          0.2319   -0.1594    2.1383 H         1 <0>         0.0614
     43 H6          0.7568   -1.6008    1.2356 H         1 <0>         0.0569
     44 H7          1.7647   -0.1336    1.2338 H         1 <0>         0.0577
     45 H8         -1.9605   -0.1726   -0.8702 H         1 <0>         0.0584
     46 H9         -1.4185   -1.6235    0.0069 H         1 <0>         0.0589
     47 H10        -1.9435   -0.1821    0.9097 H         1 <0>         0.0611
     48 H11        -0.9938   -1.5568   -1.9713 H         1 <0>         0.1293
     49 H12         0.1588   -2.3512   -3.9970 H         1 <0>         0.1193
     50 H13         3.7024   -0.3141   -2.7796 H         1 <0>         0.1228
     51 H14         2.5473    0.4872   -0.7580 H         1 <0>         0.1250
     52 H15         3.7711   -1.9799   -4.5441 H         1 <0>         0.0983
     53 H16         2.2923   -2.8305   -5.0520 H         1 <0>         0.0852
     54 H17         5.4533   -0.9258   -7.4701 H         1 <0>         0.4230
     55 H18         6.8497   -1.6127   -5.4368 H         1 <0>         0.1373
     56 H19         7.4481   -3.5268   -4.0123 H         1 <0>         0.1365
     57 H20         6.1106   -5.5876   -4.0692 H         1 <0>         0.1356
     58 H21         4.1493   -5.7582   -5.5425 H         1 <0>         0.1386
     59 H22         0.8802   -2.4754   -8.5723 H         1 <0>         0.4232
     60 H23         0.1687   -3.9805  -10.6915 H         1 <0>         0.1124
     61 H24         0.5739   -2.3384  -11.2463 H         1 <0>         0.1123
     62 H25         2.3457   -3.2701  -12.7096 H         1 <0>         0.1183
     63 H26         1.9405   -4.9121  -12.1549 H         1 <0>         0.1217
     64 H27         1.6238   -1.4136  -14.1378 H         1 <0>         0.1604
     65 H28         0.7218   -0.1467  -16.0003 H         1 <0>         0.1576
     66 H29        -1.1745   -0.9689  -17.3071 H         1 <0>         0.1607
     67 H30        -2.2516   -3.0658  -16.8319 H         1 <0>         0.1602
     68 H31        -0.0220   -6.0522  -13.7900 H         1 <0>         0.1758
     69 H32        -1.1519   -5.2284  -12.6759 H         1 <0>         0.1742
     70 H33        -2.1189   -5.2411  -15.0717 H         1 <0>         0.4558
@<TRIPOS>BOND
     1    1    2 1
     2    1   39 1
     3    1   40 1
     4    1   41 1
     5    2    3 1
     6    2    4 1
     7    2    5 1
     8    3   42 1
     9    3   43 1
    10    3   44 1
    11    4   45 1
    12    4   46 1
    13    4   47 1
    14    5   10 ar
    15    5    6 ar
    16    6    7 ar
    17    6   48 1
    18    7    8 ar
    19    7   49 1
    20    8    9 ar
    21    8   11 1
    22    9   10 ar
    23    9   50 1
    24   10   51 1
    25   11   12 1
    26   11   52 1
    27   11   53 1
    28   12   13 1
    29   13   14 1
    30   13   24 1
    31   13   15 1
    32   15   16 1
    33   15   54 1
    34   16   21 ar
    35   16   17 ar
    36   17   18 ar
    37   17   55 1
    38   18   19 ar
    39   18   56 1
    40   19   20 ar
    41   19   57 1
    42   20   21 ar
    43   20   58 1
    44   21   22 1
    45   22   23 2
    46   22   24 am
    47   24   25 1
    48   25   26 am
    49   25   59 1
    50   26   27 2
    51   26   28 1
    52   28   29 1
    53   28   60 1
    54   28   61 1
    55   29   30 1
    56   29   62 1
    57   29   63 1
    58   30   38 1
    59   30   31 2
    60   31   36 ar
    61   31   32 ar
    62   32   33 ar
    63   32   64 1
    64   33   34 ar
    65   33   65 1
    66   34   35 ar
    67   34   66 1
    68   35   36 ar
    69   35   67 1
    70   36   37 2
    71   37   38 1
    72   37   70 1
    73   38   68 1
    74   38   69 1
@<TRIPOS>MOLECULE
ZINC36048484
   70    72     0     0     0
SMALL
USER_CHARGES

@<TRIPOS>ATOM
      1 C1         -0.4629    1.6338   -1.6223 C.3       1 <0>        -0.1512
      2 C2         -0.2714    0.1500   -1.9421 C.3       1 <0>        -0.1375
      3 C3          0.9266   -0.3902   -1.1585 C.3       1 <0>         0.1429
      4 H1          0.9036    0.0038   -0.1425 H         1 <0>         0.1197
      5 C4          0.8604   -1.9181   -1.1147 C.3       1 <0>         0.0741
      6 H2         -0.1821   -2.2339   -1.1559 H         1 <0>         0.1581
      7 C5          1.5972   -2.4814   -2.3015 C.ar      1 <0>        -0.1266
      8 C6          1.4439   -1.8579   -3.5316 C.ar      1 <0>        -0.1783
      9 C7          2.1003   -2.3429   -4.6484 C.ar      1 <0>         0.1199
     10 C8          2.9181   -3.4637   -4.5362 C.ar      1 <0>         0.1354
     11 C9          3.0683   -4.0818   -3.3076 C.ar      1 <0>        -0.1654
     12 C10         2.4093   -3.5903   -2.1909 C.ar      1 <0>        -0.0752
     13 C11         2.6082   -4.2898   -0.8703 C.3       1 <0>        -0.1012
     14 C12         1.5176   -3.8613    0.1122 C.3       1 <0>        -0.0112
     15 N1          1.4597   -2.3920    0.1360 N.4       1 <0>        -0.3805
     16 C13         0.6393   -1.9516    1.2722 C.3       1 <0>         0.0372
     17 C14         1.3314   -2.3124    2.5613 C.ar      1 <0>        -0.1724
     18 C15         1.0920   -3.5380    3.1542 C.ar      1 <0>        -0.0666
     19 C16         1.7264   -3.8702    4.3362 C.ar      1 <0>        -0.1507
     20 C17         2.6022   -2.9748    4.9265 C.ar      1 <0>         0.1407
     21 C18         2.8412   -1.7475    4.3318 C.ar      1 <0>        -0.1490
     22 C19         2.2096   -1.4197    3.1471 C.ar      1 <0>        -0.0586
     23 F1          3.2226   -3.2983    6.0822 F         1 <0>        -0.1221
     24 O1          3.5660   -3.9490   -5.6290 O.3       1 <0>        -0.2941
     25 C20         4.3878   -5.1021   -5.4370 C.3       1 <0>         0.0202
     26 O2          1.9468   -1.7275   -5.8514 O.3       1 <0>        -0.2925
     27 C21         1.0916   -0.5833   -5.8903 C.3       1 <0>         0.0199
     28 N2          2.1679    0.0262   -1.8158 N.am      1 <0>        -0.7561
     29 C22         2.7609    1.1843   -1.4644 C.2       1 <0>         0.7042
     30 O3          2.2657    1.8836   -0.6018 O.2       1 <0>        -0.5720
     31 N3          3.9029    1.5673   -2.0691 N.am      1 <0>        -0.7325
     32 C23         4.5475    2.8262   -1.6870 C.3       1 <0>         0.1868
     33 C24         4.9125    2.7821   -0.2018 C.3       1 <0>        -0.1639
     34 C25         5.8168    3.0221   -2.5185 C.3       1 <0>        -0.1595
     35 C26         3.5864    3.9891   -1.9417 C.3       1 <0>        -0.1660
     36 H3         -0.6430    1.7550   -0.5541 H         1 <0>         0.0616
     37 H4          0.4341    2.1851   -1.9044 H         1 <0>         0.0686
     38 H5         -1.3164    2.0186   -2.1806 H         1 <0>         0.0610
     39 H6         -1.1684   -0.4013   -1.6601 H         1 <0>         0.0823
     40 H7         -0.0913    0.0288   -3.0103 H         1 <0>         0.0765
     41 H8          0.8088   -0.9886   -3.6174 H         1 <0>         0.1591
     42 H9          3.7018   -4.9519   -3.2178 H         1 <0>         0.1489
     43 H10         2.5574   -5.3683   -1.0202 H         1 <0>         0.1249
     44 H11         3.5851   -4.0270   -0.4645 H         1 <0>         0.1031
     45 H12         0.5562   -4.2603   -0.2114 H         1 <0>         0.1365
     46 H13         1.7552   -4.2347    1.1083 H         1 <0>         0.1398
     47 H14         0.5015   -0.8714    1.2238 H         1 <0>         0.1428
     48 H15        -0.3323   -2.4440    1.2313 H         1 <0>         0.1435
     49 H16         0.4086   -4.2361    2.6938 H         1 <0>         0.1435
     50 H17         1.5390   -4.8276    4.7994 H         1 <0>         0.1502
     51 H18         3.5238   -1.0482    4.7916 H         1 <0>         0.1498
     52 H19         2.3992   -0.4642    2.6807 H         1 <0>         0.1429
     53 H20         5.1682   -4.8753   -4.7106 H         1 <0>         0.0608
     54 H21         3.7770   -5.9264   -5.0687 H         1 <0>         0.0615
     55 H22         4.8451   -5.3843   -6.3854 H         1 <0>         0.1119
     56 H23         1.0573   -0.1897   -6.9062 H         1 <0>         0.1127
     57 H24         0.0874   -0.8694   -5.5774 H         1 <0>         0.0601
     58 H25         1.4778    0.1820   -5.2170 H         1 <0>         0.0571
     59 H26         2.5630   -0.5317   -2.5040 H         1 <0>         0.4032
     60 H27         4.2980    1.0094   -2.7572 H         1 <0>         0.3951
     61 H28         5.5972    1.9536   -0.0204 H         1 <0>         0.0513
     62 H29         5.3921    3.7187    0.0824 H         1 <0>         0.0670
     63 H30         4.0082    2.6425    0.3905 H         1 <0>         0.0786
     64 H31         5.5567    3.0535   -3.5766 H         1 <0>         0.0636
     65 H32         6.2964    3.9587   -2.2343 H         1 <0>         0.0798
     66 H33         6.5015    2.1936   -2.3371 H         1 <0>         0.0622
     67 H34         2.6821    3.8495   -1.3493 H         1 <0>         0.0799
     68 H35         4.0660    4.9257   -1.6574 H         1 <0>         0.0668
     69 H36         3.3264    4.0205   -2.9997 H         1 <0>         0.0535
     70 H37         2.3925   -2.0182    0.2264 H         1 <0>         0.4243
@<TRIPOS>BOND
     1    1    2 1
     2    1   36 1
     3    1   37 1
     4    1   38 1
     5    2    3 1
     6    2   39 1
     7    2   40 1
     8    3    4 1
     9    3    5 1
    10    3   28 1
    11    5    6 1
    12    5   15 1
    13    5    7 1
    14    7   12 ar
    15    7    8 ar
    16    8    9 ar
    17    8   41 1
    18    9   10 ar
    19    9   26 1
    20   10   11 ar
    21   10   24 1
    22   11   12 ar
    23   11   42 1
    24   12   13 1
    25   13   14 1
    26   13   43 1
    27   13   44 1
    28   14   15 1
    29   14   45 1
    30   14   46 1
    31   15   16 1
    32   15   70 1
    33   16   17 1
    34   16   47 1
    35   16   48 1
    36   17   22 ar
    37   17   18 ar
    38   18   19 ar
    39   18   49 1
    40   19   20 ar
    41   19   50 1
    42   20   21 ar
    43   20   23 1
    44   21   22 ar
    45   21   51 1
    46   22   52 1
    47   24   25 1
    48   25   53 1
    49   25   54 1
    50   25   55 1
    51   26   27 1
    52   27   56 1
    53   27   57 1
    54   27   58 1
    55   28   29 am
    56   28   59 1
    57   29   30 2
    58   29   31 am
    59   31   32 1
    60   31   60 1
    61   32   33 1
    62   32   34 1
    63   32   35 1
    64   33   61 1
    65   33   62 1
    66   33   63 1
    67   34   64 1
    68   34   65 1
    69   34   66 1
    70   35   67 1
    71   35   68 1
    72   35   69 1
@<TRIPOS>MOLECULE
ZINC39608931
   79    83     0     0     0
SMALL
USER_CHARGES

@<TRIPOS>ATOM
      1 C1          3.7464   -6.9941    0.6549 C.ar      1 <0>        -0.1088
      2 C2          4.7951   -6.2357    0.1691 C.ar      1 <0>        -0.1221
      3 C3          5.6591   -5.6082    1.0470 C.ar      1 <0>        -0.0987
      4 C4          5.4742   -5.7388    2.4107 C.ar      1 <0>        -0.0992
      5 C5          4.4250   -6.4965    2.8965 C.ar      1 <0>        -0.0976
      6 C6          3.5618   -7.1251    2.0186 C.ar      1 <0>        -0.1213
      7 C7          6.4167   -5.0556    3.3677 C.3       1 <0>         0.1067
      8 O1          5.9255   -3.7477    3.6678 O.3       1 <0>        -0.3674
      9 C8          6.7503   -3.0104    4.5723 C.3       1 <0>         0.0808
     10 H1          7.7897   -3.3217    4.4677 H         1 <0>         0.0682
     11 C9          6.2752   -3.2341    6.0228 C.3       1 <0>        -0.1492
     12 C10         6.4722   -1.8568    6.7037 C.3       1 <0>        -0.1225
     13 C11         6.0704   -0.8625    5.5861 C.3       1 <0>        -0.1269
     14 C12         6.6211   -1.5026    4.2938 C.3       1 <0>         0.1390
     15 H2          5.9293   -1.3332    3.4688 H         1 <0>         0.1087
     16 N1          7.9340   -0.9373    3.9727 N.am      1 <0>        -0.7221
     17 C13         8.0215    0.1824    3.2277 C.2       1 <0>         0.5176
     18 O2          7.0135    0.7220    2.8231 O.2       1 <0>        -0.5123
     19 C14         9.3720    0.7640    2.8973 C.3       1 <0>        -0.1155
     20 H3         10.1243   -0.0238    2.8582 H         1 <0>         0.1164
     21 C15         9.3167    1.5224    1.5523 C.3       1 <0>         0.1157
     22 N2          9.0774    2.9355    1.9288 N.am      1 <0>        -0.6211
     23 C16         9.9094    3.1406    3.1387 C.3       1 <0>         0.1063
     24 C17         9.7650    1.8286    3.9353 C.3       1 <0>        -0.0724
     25 C18        11.0916    1.4612    4.5930 C.3       1 <0>        -0.1337
     26 C19        11.4321    2.5033    5.6620 C.3       1 <0>        -0.0099
     27 N3         10.3611    2.5465    6.6649 N.4       1 <0>        -0.5044
     28 C20         9.1089    2.9910    6.0411 C.3       1 <0>        -0.0093
     29 C21         8.6700    1.9694    4.9883 C.3       1 <0>        -0.1479
     30 C22         8.2832    3.8319    1.3108 C.2       1 <0>         0.5462
     31 O3          8.1916    4.9611    1.7438 O.2       1 <0>        -0.5326
     32 C23         7.5088    3.4313    0.0816 C.3       1 <0>        -0.1367
     33 C24         6.6931    4.6250   -0.4189 C.3       1 <0>        -0.0955
     34 C25         5.9069    4.2182   -1.6668 C.3       1 <0>        -0.0934
     35 C26         6.8750    3.9535   -2.8384 C.3       1 <0>        -0.1217
     36 C27         6.1246    4.4942   -4.0808 C.3       1 <0>        -0.1273
     37 C28         5.4276    5.7644   -3.5332 C.3       1 <0>        -0.1266
     38 C29         4.9866    5.3696   -2.1086 C.3       1 <0>        -0.1221
     39 H4          3.0687   -7.4807   -0.0309 H         1 <0>         0.1258
     40 H5          4.9395   -6.1336   -0.8963 H         1 <0>         0.1254
     41 H6          6.4788   -5.0163    0.6674 H         1 <0>         0.1202
     42 H7          4.2808   -6.5989    3.9619 H         1 <0>         0.1225
     43 H8          2.7424   -7.7174    2.3982 H         1 <0>         0.1262
     44 H9          6.4861   -5.6374    4.2869 H         1 <0>         0.0603
     45 H10         7.4037   -4.9773    2.9119 H         1 <0>         0.0574
     46 H11         5.2238   -3.5211    6.0399 H         1 <0>         0.0860
     47 H12         6.8866   -3.9924    6.5119 H         1 <0>         0.0739
     48 H13         5.8140   -1.7548    7.5665 H         1 <0>         0.0754
     49 H14         7.5137   -1.7139    6.9919 H         1 <0>         0.0631
     50 H15         4.9860   -0.7665    5.5327 H         1 <0>         0.0835
     51 H16         6.5325    0.1099    5.7565 H         1 <0>         0.0657
     52 H17         8.7402   -1.3688    4.2962 H         1 <0>         0.3971
     53 H18        10.2642    1.4255    1.0222 H         1 <0>         0.0894
     54 H19         8.4971    1.1486    0.9386 H         1 <0>         0.0984
     55 H20        10.9509    3.3032    2.8611 H         1 <0>         0.0828
     56 H21         9.5339    3.9824    3.7204 H         1 <0>         0.0868
     57 H22        11.0079    0.4783    5.0567 H         1 <0>         0.0967
     58 H23        11.8786    1.4426    3.8392 H         1 <0>         0.1218
     59 H24        12.3714    2.2342    6.1452 H         1 <0>         0.1400
     60 H25        11.5320    3.4832    5.1951 H         1 <0>         0.1331
     61 H26        10.2318    1.6257    7.0567 H         1 <0>         0.4271
     62 H27         8.3354    3.0814    6.8039 H         1 <0>         0.1382
     63 H28         9.2640    3.9592    5.5651 H         1 <0>         0.1346
     64 H29         7.7497    2.3091    4.5131 H         1 <0>         0.1236
     65 H30         8.4987    1.0049    5.4663 H         1 <0>         0.0960
     66 H31         8.2021    3.1130   -0.6969 H         1 <0>         0.0941
     67 H32         6.8365    2.6093    0.3276 H         1 <0>         0.0996
     68 H33         5.9997    4.9433    0.3596 H         1 <0>         0.0691
     69 H34         7.3654    5.4469   -0.6649 H         1 <0>         0.0706
     70 H35         5.3159    3.3258   -1.4610 H         1 <0>         0.0723
     71 H36         7.8092    4.4955   -2.6911 H         1 <0>         0.0655
     72 H37         7.0650    2.8853   -2.9424 H         1 <0>         0.0630
     73 H38         6.8263    4.7504   -4.8746 H         1 <0>         0.0660
     74 H39         5.3888    3.7711   -4.4326 H         1 <0>         0.0671
     75 H40         6.1281    6.5988   -3.4982 H         1 <0>         0.0648
     76 H41         4.5613    6.0176   -4.1443 H         1 <0>         0.0655
     77 H42         3.9491    5.0356   -2.1180 H         1 <0>         0.0642
     78 H43         5.1001    6.2181   -1.4340 H         1 <0>         0.0655
     79 H44        10.6159    3.1892    7.3998 H         1 <0>         0.4344
@<TRIPOS>BOND
     1    1    6 ar
     2    1    2 ar
     3    1   39 1
     4    2    3 ar
     5    2   40 1
     6    3    4 ar
     7    3   41 1
     8    4    5 ar
     9    4    7 1
    10    5    6 ar
    11    5   42 1
    12    6   43 1
    13    7    8 1
    14    7   44 1
    15    7   45 1
    16    8    9 1
    17    9   10 1
    18    9   14 1
    19    9   11 1
    20   11   12 1
    21   11   46 1
    22   11   47 1
    23   12   13 1
    24   12   48 1
    25   12   49 1
    26   13   14 1
    27   13   50 1
    28   13   51 1
    29   14   15 1
    30   14   16 1
    31   16   17 am
    32   16   52 1
    33   17   18 2
    34   17   19 1
    35   19   20 1
    36   19   24 1
    37   19   21 1
    38   21   22 1
    39   21   53 1
    40   21   54 1
    41   22   23 1
    42   22   30 am
    43   23   24 1
    44   23   55 1
    45   23   56 1
    46   24   29 1
    47   24   25 1
    48   25   26 1
    49   25   57 1
    50   25   58 1
    51   26   27 1
    52   26   59 1
    53   26   60 1
    54   27   28 1
    55   27   61 1
    56   27   79 1
    57   28   29 1
    58   28   62 1
    59   28   63 1
    60   29   64 1
    61   29   65 1
    62   30   31 2
    63   30   32 1
    64   32   33 1
    65   32   66 1
    66   32   67 1
    67   33   34 1
    68   33   68 1
    69   33   69 1
    70   34   38 1
    71   34   35 1
    72   34   70 1
    73   35   36 1
    74   35   71 1
    75   35   72 1
    76   36   37 1
    77   36   73 1
    78   36   74 1
    79   37   38 1
    80   37   75 1
    81   37   76 1
    82   38   77 1
    83   38   78 1
@<TRIPOS>MOLECULE
ZINC39665289
   63    66     0     0     0
SMALL
USER_CHARGES

@<TRIPOS>ATOM
      1 C1          2.3359   -7.1437   -3.0595 C.3       1 <0>        -0.1834
      2 C2          1.3496   -7.8711   -2.1435 C.3       1 <0>         0.0745
      3 H1          0.5124   -8.2435   -2.7339 H         1 <0>         0.0765
      4 C3          0.8318   -6.9015   -1.0793 C.3       1 <0>         0.1220
      5 N1         -0.2042   -7.5609   -0.2805 N.am      1 <0>        -0.7268
      6 C4         -0.8766   -6.8652    0.6577 C.2       1 <0>         0.5183
      7 O1         -0.5672   -5.7178    0.8997 O.2       1 <0>        -0.5146
      8 C5         -2.0130   -7.5130    1.4061 C.3       1 <0>        -0.1150
      9 H2         -1.8147   -8.5750    1.5507 H         1 <0>         0.1202
     10 C6         -2.2271   -6.8155    2.7681 C.3       1 <0>         0.1131
     11 N2         -3.2930   -5.8177    2.5143 N.am      1 <0>        -0.6116
     12 C7         -4.2381   -6.5107    1.6062 C.3       1 <0>         0.1078
     13 C8         -3.3360   -7.3137    0.6479 C.3       1 <0>        -0.0733
     14 C9         -3.0960   -6.5238   -0.6351 C.3       1 <0>        -0.1474
     15 C10        -4.4160   -6.3876   -1.3994 C.3       1 <0>        -0.0095
     16 N3         -4.9415   -7.7217   -1.7133 N.4       1 <0>        -0.5044
     17 C11        -5.2566   -8.4407   -0.4731 C.3       1 <0>        -0.0104
     18 C12        -3.9723   -8.6635    0.3306 C.3       1 <0>        -0.1339
     19 C13        -3.3830   -4.5635    2.9994 C.2       1 <0>         0.6022
     20 O2         -4.3618   -3.8856    2.7539 O.2       1 <0>        -0.5117
     21 C14        -2.2924   -4.0127    3.8292 C.ar      1 <0>        -0.1585
     22 C15        -1.0843   -3.6346    3.2393 C.ar      1 <0>        -0.0386
     23 C16        -0.0698   -3.1203    4.0201 C.ar      1 <0>        -0.0506
     24 C17        -0.2464   -2.9781    5.3871 C.ar      1 <0>        -0.0577
     25 C18        -1.4385   -3.3496    5.9790 C.ar      1 <0>        -0.1410
     26 C19        -2.4665   -3.8618    5.2082 C.ar      1 <0>         0.1425
     27 F1         -3.6337   -4.2196    5.7868 F         1 <0>        -0.1232
     28 Cl1         1.4326   -2.6506    3.2880 Cl        1 <0>        -0.0449
     29 O3          2.0096   -8.9677   -1.5081 O.3       1 <0>        -0.3077
     30 C20         2.0656  -10.1375   -2.1976 C.ar      1 <0>         0.1234
     31 C21         1.6060  -10.1959   -3.5053 C.ar      1 <0>        -0.2132
     32 C22         1.6644  -11.3861   -4.2042 C.ar      1 <0>        -0.0809
     33 C23         2.1799  -12.5186   -3.6013 C.ar      1 <0>        -0.1528
     34 C24         2.6382  -12.4631   -2.2980 C.ar      1 <0>        -0.0771
     35 C25         2.5877  -11.2738   -1.5969 C.ar      1 <0>        -0.1499
     36 H3          2.7048   -7.8344   -3.8177 H         1 <0>         0.0730
     37 H4          1.8325   -6.3072   -3.5442 H         1 <0>         0.0768
     38 H5          3.1731   -6.7712   -2.4692 H         1 <0>         0.0764
     39 H6          1.6545   -6.6010   -0.4304 H         1 <0>         0.0863
     40 H7          0.4111   -6.0206   -1.5641 H         1 <0>         0.0928
     41 H8         -0.4063   -8.4983   -0.4270 H         1 <0>         0.4019
     42 H9         -2.5526   -7.5369    3.5175 H         1 <0>         0.0927
     43 H10        -1.3111   -6.3196    3.0893 H         1 <0>         0.1012
     44 H11        -4.8848   -7.1824    2.1708 H         1 <0>         0.0885
     45 H12        -4.8331   -5.7857    1.0510 H         1 <0>         0.0900
     46 H13        -2.7154   -5.5331   -0.3867 H         1 <0>         0.1220
     47 H14        -2.3691   -7.0487   -1.2550 H         1 <0>         0.0969
     48 H15        -5.1372   -5.8485   -0.7852 H         1 <0>         0.1349
     49 H16        -4.2446   -5.8377   -2.3248 H         1 <0>         0.1389
     50 H17        -5.7786   -7.6298   -2.2691 H         1 <0>         0.4348
     51 H18        -5.9582   -7.8531    0.1191 H         1 <0>         0.1337
     52 H19        -5.7048   -9.4042   -0.7157 H         1 <0>         0.1409
     53 H20        -3.2767   -9.2651   -0.2545 H         1 <0>         0.0980
     54 H21        -4.2097   -9.1813    1.2599 H         1 <0>         0.1232
     55 H22        -0.9443   -3.7449    2.1741 H         1 <0>         0.1570
     56 H23         0.5518   -2.5752    5.9929 H         1 <0>         0.1526
     57 H24        -1.5692   -3.2363    7.0451 H         1 <0>         0.1564
     58 H25         1.2026   -9.3118   -3.9764 H         1 <0>         0.1265
     59 H26         1.3067  -11.4321   -5.2222 H         1 <0>         0.1254
     60 H27         2.2244  -13.4482   -4.1493 H         1 <0>         0.1267
     61 H28         3.0401  -13.3492   -1.8292 H         1 <0>         0.1323
     62 H29         2.9498  -11.2299   -0.5804 H         1 <0>         0.1312
     63 H30        -4.2503   -8.2400   -2.2346 H         1 <0>         0.4272
@<TRIPOS>BOND
     1    1    2 1
     2    1   36 1
     3    1   37 1
     4    1   38 1
     5    2    3 1
     6    2    4 1
     7    2   29 1
     8    4    5 1
     9    4   39 1
    10    4   40 1
    11    5    6 am
    12    5   41 1
    13    6    7 2
    14    6    8 1
    15    8    9 1
    16    8   13 1
    17    8   10 1
    18   10   11 1
    19   10   42 1
    20   10   43 1
    21   11   12 1
    22   11   19 am
    23   12   13 1
    24   12   44 1
    25   12   45 1
    26   13   18 1
    27   13   14 1
    28   14   15 1
    29   14   46 1
    30   14   47 1
    31   15   16 1
    32   15   48 1
    33   15   49 1
    34   16   17 1
    35   16   50 1
    36   16   63 1
    37   17   18 1
    38   17   51 1
    39   17   52 1
    40   18   53 1
    41   18   54 1
    42   19   20 2
    43   19   21 1
    44   21   26 ar
    45   21   22 ar
    46   22   23 ar
    47   22   55 1
    48   23   24 ar
    49   23   28 1
    50   24   25 ar
    51   24   56 1
    52   25   26 ar
    53   25   57 1
    54   26   27 1
    55   29   30 1
    56   30   35 ar
    57   30   31 ar
    58   31   32 ar
    59   31   58 1
    60   32   33 ar
    61   32   59 1
    62   33   34 ar
    63   33   60 1
    64   34   35 ar
    65   34   61 1
    66   35   62 1
@<TRIPOS>MOLECULE
ZINC39695388
   75    78     0     0     0
SMALL
USER_CHARGES

@<TRIPOS>ATOM
      1 C1         -0.5585    2.1950   -0.4944 C.3       1 <0>        -0.1583
      2 C2          0.7342    1.7982    0.2214 C.3       1 <0>        -0.1293
      3 C3          0.4523    0.6370    1.1769 C.3       1 <0>         0.1830
      4 H1         -0.0248   -0.1761    0.6297 H         1 <0>         0.1103
      5 C4          1.7485    0.1497    1.7715 C.ar      1 <0>        -0.1037
      6 C5          2.3219    0.8292    2.8300 C.ar      1 <0>        -0.1150
      7 C6          3.5109    0.3822    3.3754 C.ar      1 <0>        -0.1158
      8 C7          4.1262   -0.7444    2.8627 C.ar      1 <0>        -0.1125
      9 C8          3.5523   -1.4244    1.8048 C.ar      1 <0>        -0.1109
     10 C9          2.3611   -0.9799    1.2621 C.ar      1 <0>        -0.1061
     11 N1         -0.4364    1.0916    2.2491 N.am      1 <0>        -0.7189
     12 C10        -1.7344    0.7286    2.2479 C.2       1 <0>         0.5226
     13 O1         -2.1891    0.1061    1.3116 O.2       1 <0>        -0.5158
     14 C11        -2.6207    1.0962    3.4099 C.3       1 <0>        -0.1177
     15 H2         -2.0375    1.1489    4.3293 H         1 <0>         0.1126
     16 C12        -3.7669    0.0706    3.5579 C.3       1 <0>         0.1047
     17 N2         -4.9426    0.8783    3.9594 N.am      1 <0>        -0.6208
     18 C13        -4.8313    2.1175    3.1531 C.3       1 <0>         0.1100
     19 C14        -3.3233    2.4380    3.1439 C.3       1 <0>        -0.0720
     20 C15        -2.9895    3.4373    4.2475 C.3       1 <0>        -0.1348
     21 C16        -3.6534    4.7804    3.9312 C.3       1 <0>        -0.0113
     22 N3         -3.1717    5.2732    2.6351 N.4       1 <0>        -0.5044
     23 C17        -3.5774    4.3520    1.5667 C.3       1 <0>        -0.0086
     24 C18        -2.9106    2.9906    1.7832 C.3       1 <0>        -0.1542
     25 C19        -5.8975    0.5586    4.8552 C.2       1 <0>         0.5468
     26 O2         -6.8487    1.2937    5.0160 O.2       1 <0>        -0.5027
     27 C20        -5.7834   -0.7122    5.6570 C.3       1 <0>         0.0759
     28 H3         -4.7322   -0.9273    5.8493 H         1 <0>         0.0977
     29 C21        -6.4051   -1.8686    4.8713 C.3       1 <0>        -0.1086
     30 C22        -5.6440   -2.0602    3.5580 C.3       1 <0>        -0.1591
     31 C23        -6.3221   -3.1515    5.7008 C.3       1 <0>        -0.1528
     32 O3         -6.4725   -0.5554    6.8990 O.3       1 <0>        -0.2845
     33 C24        -5.9392   -1.1772    7.9833 C.ar      1 <0>         0.1247
     34 C25        -4.7599   -1.8977    7.8610 C.ar      1 <0>        -0.2126
     35 C26        -4.2196   -2.5286    8.9648 C.ar      1 <0>        -0.0789
     36 C27        -4.8533   -2.4428   10.1907 C.ar      1 <0>        -0.1524
     37 C28        -6.0289   -1.7257   10.3151 C.ar      1 <0>        -0.0761
     38 C29        -6.5700   -1.0879    9.2157 C.ar      1 <0>        -0.1473
     39 H4         -0.3667    3.0490   -1.1440 H         1 <0>         0.0560
     40 H5         -0.9147    1.3563   -1.0925 H         1 <0>         0.0631
     41 H6         -1.3150    2.4624    0.2434 H         1 <0>         0.0521
     42 H7          1.4774    1.4911   -0.5144 H         1 <0>         0.0812
     43 H8          1.1128    2.6500    0.7865 H         1 <0>         0.0649
     44 H9          1.8412    1.7094    3.2306 H         1 <0>         0.1130
     45 H10         3.9592    0.9135    4.2020 H         1 <0>         0.1245
     46 H11         5.0554   -1.0932    3.2883 H         1 <0>         0.1264
     47 H12         4.0332   -2.3044    1.4039 H         1 <0>         0.1279
     48 H13         1.9108   -1.5133    0.4380 H         1 <0>         0.1253
     49 H14        -0.0907    1.6538    2.9599 H         1 <0>         0.3981
     50 H15        -3.9554   -0.4284    2.6073 H         1 <0>         0.1099
     51 H16        -3.5259   -0.6598    4.3303 H         1 <0>         0.0920
     52 H17        -5.1907    1.9449    2.1387 H         1 <0>         0.0874
     53 H18        -5.3887    2.9281    3.6225 H         1 <0>         0.0903
     54 H19        -3.3610    3.0634    5.2015 H         1 <0>         0.1183
     55 H20        -1.9090    3.5697    4.3038 H         1 <0>         0.0968
     56 H21        -4.7349    4.6504    3.8911 H         1 <0>         0.1346
     57 H22        -3.4032    5.5013    4.7095 H         1 <0>         0.1406
     58 H23        -3.5633    6.1859    2.4571 H         1 <0>         0.4350
     59 H24        -4.6607    4.2323    1.5825 H         1 <0>         0.1345
     60 H25        -3.2711    4.7571    0.6023 H         1 <0>         0.1401
     61 H26        -1.8272    3.1069    1.7510 H         1 <0>         0.1029
     62 H27        -3.2266    2.3019    0.9997 H         1 <0>         0.1294
     63 H28        -7.4493   -1.6418    4.6564 H         1 <0>         0.0907
     64 H29        -4.5848   -2.2062    3.7698 H         1 <0>         0.0611
     65 H30        -6.0340   -2.9341    3.0362 H         1 <0>         0.0741
     66 H31        -5.7709   -1.1768    2.9322 H         1 <0>         0.0604
     67 H32        -6.8643   -3.0150    6.6364 H         1 <0>         0.0646
     68 H33        -6.7650   -3.9753    5.1410 H         1 <0>         0.0683
     69 H34        -5.2778   -3.3783    5.9157 H         1 <0>         0.0606
     70 H35        -4.2650   -1.9656    6.9035 H         1 <0>         0.1263
     71 H36        -3.3016   -3.0896    8.8700 H         1 <0>         0.1263
     72 H37        -4.4295   -2.9370   11.0524 H         1 <0>         0.1271
     73 H38        -6.5222   -1.6605   11.2737 H         1 <0>         0.1330
     74 H39        -7.4859   -0.5242    9.3144 H         1 <0>         0.1327
     75 H40        -2.1651    5.3402    2.6553 H         1 <0>         0.4273
@<TRIPOS>BOND
     1    1    2 1
     2    1   39 1
     3    1   40 1
     4    1   41 1
     5    2    3 1
     6    2   42 1
     7    2   43 1
     8    3    4 1
     9    3    5 1
    10    3   11 1
    11    5   10 ar
    12    5    6 ar
    13    6    7 ar
    14    6   44 1
    15    7    8 ar
    16    7   45 1
    17    8    9 ar
    18    8   46 1
    19    9   10 ar
    20    9   47 1
    21   10   48 1
    22   11   12 am
    23   11   49 1
    24   12   13 2
    25   12   14 1
    26   14   15 1
    27   14   19 1
    28   14   16 1
    29   16   17 1
    30   16   50 1
    31   16   51 1
    32   17   18 1
    33   17   25 am
    34   18   19 1
    35   18   52 1
    36   18   53 1
    37   19   24 1
    38   19   20 1
    39   20   21 1
    40   20   54 1
    41   20   55 1
    42   21   22 1
    43   21   56 1
    44   21   57 1
    45   22   23 1
    46   22   58 1
    47   22   75 1
    48   23   24 1
    49   23   59 1
    50   23   60 1
    51   24   61 1
    52   24   62 1
    53   25   26 2
    54   25   27 1
    55   27   28 1
    56   27   29 1
    57   27   32 1
    58   29   30 1
    59   29   31 1
    60   29   63 1
    61   30   64 1
    62   30   65 1
    63   30   66 1
    64   31   67 1
    65   31   68 1
    66   31   69 1
    67   32   33 1
    68   33   38 ar
    69   33   34 ar
    70   34   35 ar
    71   34   70 1
    72   35   36 ar
    73   35   71 1
    74   36   37 ar
    75   36   72 1
    76   37   38 ar
    77   37   73 1
    78   38   74 1
@<TRIPOS>MOLECULE
ZINC63706834
   63    67     0     0     0
SMALL
USER_CHARGES

@<TRIPOS>ATOM
      1 C1         -0.1616    1.2075    0.1972 C.ar      1 <0>        -0.1164
      2 C2          0.9888    1.9380    0.4308 C.ar      1 <0>        -0.1210
      3 C3          2.2163    1.3072    0.4266 C.ar      1 <0>        -0.1158
      4 C4          2.3032   -0.0571    0.1904 C.ar      1 <0>        -0.0785
      5 C5          1.1557   -0.7855   -0.0388 C.ar      1 <0>        -0.0664
      6 C6         -0.0770   -0.1502   -0.0371 C.ar      1 <0>        -0.1188
      7 C7          1.1985   -2.2712   -0.2885 C.3       1 <0>        -0.0767
      8 C8          2.6191   -2.6974   -0.6598 C.3       1 <0>         0.0499
      9 N1          3.5477   -2.1530    0.3436 N.3       1 <0>        -0.5168
     10 C9          3.6656   -0.6994    0.1905 C.3       1 <0>         0.0861
     11 C10         4.8629   -2.8006    0.2500 C.3       1 <0>         0.1578
     12 H1          4.7748   -3.8463    0.5445 H         1 <0>         0.1197
     13 C11         5.8486   -2.0901    1.1798 C.3       1 <0>         0.1226
     14 N2          5.3053   -2.0652    2.5401 N.am      1 <0>        -0.6842
     15 C12         6.0060   -1.4859    3.5351 C.2       1 <0>         0.5056
     16 O1          7.0869   -0.9850    3.3041 O.2       1 <0>        -0.5176
     17 C13         5.4518   -1.4604    4.9228 C.2       1 <0>         0.5146
     18 O2          4.3709   -1.9613    5.1538 O.2       1 <0>        -0.5046
     19 N3          6.1525   -0.8812    5.9178 N.am      1 <0>        -0.7089
     20 C14         5.6092   -0.8562    7.2781 C.3       1 <0>         0.1247
     21 C15         6.5949   -0.1458    8.2079 C.3       1 <0>        -0.1066
     22 C16         6.0360   -0.1201    9.6073 C.2       1 <0>         0.0704
     23 C17         6.2960   -0.9979   10.6029 C.ar      1 <0>        -0.1662
     24 C18         7.1434   -2.1940   10.6779 C.ar      1 <0>        -0.0128
     25 C19         7.2016   -2.8849   11.8391 C.ar      1 <0>        -0.1501
     26 C20         6.4744   -2.4885   12.9699 C.ar      1 <0>         0.0552
     27 C21         5.6745   -1.4012   12.9782 C.ar      1 <0>        -0.2100
     28 C22         5.5385   -0.6001   11.8110 C.ar      1 <0>         0.3280
     29 N4          4.8375    0.4816   11.5715 N.pl3     1 <0>        -0.5845
     30 C23         5.0761    0.8961   10.1845 C.3       1 <0>         0.0602
     31 C24         5.3631   -2.7189   -1.1692 C.2       1 <0>        -0.1958
     32 C25         5.8756   -3.7001   -1.9515 C.2       1 <0>        -0.1277
     33 C26         6.2743   -3.3917   -3.2386 C.2       1 <0>        -0.1627
     34 C27         6.1412   -2.1172   -3.6804 C.2       1 <0>        -0.1697
     35 S1          5.4273   -1.3063   -2.2591 S.3       1 <0>         0.0494
     36 H2         -1.1242    1.6971    0.2026 H         1 <0>         0.1230
     37 H3          0.9270    3.0003    0.6159 H         1 <0>         0.1225
     38 H4          3.1145    1.8790    0.6078 H         1 <0>         0.1191
     39 H5         -0.9756   -0.7207   -0.2202 H         1 <0>         0.1228
     40 H6          0.8862   -2.7988    0.6127 H         1 <0>         0.0862
     41 H7          0.5209   -2.5205   -1.1051 H         1 <0>         0.0820
     42 H8          2.6848   -3.7854   -0.6672 H         1 <0>         0.0851
     43 H9          2.8734   -2.3057   -1.6446 H         1 <0>         0.0519
     44 H10         4.1692   -0.4760   -0.7500 H         1 <0>         0.0577
     45 H11         4.2537   -0.2968    1.0151 H         1 <0>         0.0900
     46 H12         6.7990   -2.6238    1.1779 H         1 <0>         0.0899
     47 H13         6.0046   -1.0689    0.8321 H         1 <0>         0.0810
     48 H14         4.4413   -2.4656    2.7248 H         1 <0>         0.4233
     49 H15         7.0165   -0.4808    5.7332 H         1 <0>         0.4187
     50 H16         4.6588   -0.3226    7.2800 H         1 <0>         0.0837
     51 H17         5.4532   -1.8774    7.6258 H         1 <0>         0.0846
     52 H18         7.5453   -0.6794    8.2060 H         1 <0>         0.1188
     53 H19         6.7509    0.8754    7.8602 H         1 <0>         0.1219
     54 H20         7.7117   -2.5178    9.8185 H         1 <0>         0.1613
     55 H21         7.8245   -3.7653   11.8965 H         1 <0>         0.1583
     56 H22         6.5571   -3.0774   13.8714 H         1 <0>         0.1613
     57 H23         5.1347   -1.1383   13.8759 H         1 <0>         0.1608
     58 H24         5.5215    1.8906   10.1587 H         1 <0>         0.1759
     59 H25         4.1401    0.8883    9.6260 H         1 <0>         0.1749
     60 H26         5.9712   -4.7077   -1.5747 H         1 <0>         0.1349
     61 H27         6.6862   -4.1547   -3.8824 H         1 <0>         0.1359
     62 H28         6.3968   -1.7011   -4.6437 H         1 <0>         0.1857
     63 H29         4.2607    0.9344   12.2064 H         1 <0>         0.4563
@<TRIPOS>BOND
     1    1    6 ar
     2    1    2 ar
     3    1   36 1
     4    2    3 ar
     5    2   37 1
     6    3    4 ar
     7    3   38 1
     8    4   10 1
     9    4    5 ar
    10    5    6 ar
    11    5    7 1
    12    6   39 1
    13    7    8 1
    14    7   40 1
    15    7   41 1
    16    8    9 1
    17    8   42 1
    18    8   43 1
    19    9   10 1
    20    9   11 1
    21   10   44 1
    22   10   45 1
    23   11   12 1
    24   11   13 1
    25   11   31 1
    26   13   14 1
    27   13   46 1
    28   13   47 1
    29   14   15 am
    30   14   48 1
    31   15   16 2
    32   15   17 1
    33   17   18 2
    34   17   19 am
    35   19   20 1
    36   19   49 1
    37   20   21 1
    38   20   50 1
    39   20   51 1
    40   21   22 1
    41   21   52 1
    42   21   53 1
    43   22   30 1
    44   22   23 2
    45   23   28 ar
    46   23   24 ar
    47   24   25 ar
    48   24   54 1
    49   25   26 ar
    50   25   55 1
    51   26   27 ar
    52   26   56 1
    53   27   28 ar
    54   27   57 1
    55   28   29 2
    56   29   30 1
    57   29   63 1
    58   30   58 1
    59   30   59 1
    60   31   35 1
    61   31   32 2
    62   32   33 1
    63   32   60 1
    64   33   34 2
    65   33   61 1
    66   34   35 1
    67   34   62 1
@<TRIPOS>MOLECULE
ZINC12642294
   64    69     0     0     0
SMALL
USER_CHARGES
N-cyclopentyl-(2-fluorophenyl)-methyl-oxo-N'-phenyl-BLAHdicarboxamide
@<TRIPOS>ATOM
      1 C1         -4.4419    2.7522   -0.7992 C.3       1 <0>        -0.1246
      2 C2         -3.4749    3.9233   -0.9846 C.3       1 <0>         0.1332
      3 C3         -2.4882    3.8252   -2.1546 C.2       1 <0>        -0.1622
      4 C4         -2.0921    5.0703   -2.3747 C.2       1 <0>        -0.1485
      5 C5         -2.8708    5.9293   -1.3954 C.3       1 <0>         0.1076
      6 O1         -4.0955    5.2524   -1.2376 O.3       1 <0>        -0.3061
      7 C6         -2.2765    5.7089    0.0534 C.3       1 <0>        -0.1683
      8 H1         -2.8843    6.2618    0.7697 H         1 <0>         0.1317
      9 C7         -2.5181    4.2315    0.2317 C.3       1 <0>        -0.1053
     10 H2         -3.0134    4.0270    1.1809 H         1 <0>         0.1176
     11 C8         -1.2314    3.4552    0.1181 C.2       1 <0>         0.5241
     12 O2         -0.3438    3.8551   -0.6053 O.2       1 <0>        -0.4814
     13 N1         -1.0670    2.3167    0.8204 N.am      1 <0>        -0.6721
     14 C9          0.1655    1.6546    0.8011 C.ar      1 <0>         0.1461
     15 C10         0.2126    0.2693    0.8866 C.ar      1 <0>        -0.1473
     16 C11         1.4311   -0.3809    0.8731 C.ar      1 <0>        -0.1027
     17 C12         2.6033    0.3460    0.7750 C.ar      1 <0>        -0.1351
     18 C13         2.5598    1.7255    0.6892 C.ar      1 <0>        -0.1008
     19 C14         1.3445    2.3817    0.7022 C.ar      1 <0>        -0.1178
     20 C15        -0.9748    6.3854   -0.0908 C.2       1 <0>         0.5741
     21 O3          0.0672    6.0671    0.4422 O.2       1 <0>        -0.4718
     22 N2         -1.1669    7.4456   -0.9434 N.am      1 <0>        -0.5697
     23 C16        -2.5484    7.3865   -1.5159 C.3       1 <0>         0.1617
     24 H3         -2.5514    7.7011   -2.5595 H         1 <0>         0.1271
     25 C17        -3.5050    8.2189   -0.7017 C.2       1 <0>         0.5014
     26 O4         -3.1720    8.6331    0.3885 O.2       1 <0>        -0.5033
     27 N3         -4.7307    8.5031   -1.1849 N.am      1 <0>        -0.7137
     28 C18        -5.6606    9.3123   -0.3933 C.3       1 <0>         0.1417
     29 C19        -6.4803    8.4060    0.5483 C.3       1 <0>        -0.1342
     30 C20        -7.8904    9.0467    0.5598 C.3       1 <0>        -0.1249
     31 C21        -8.0691    9.5061   -0.9086 C.3       1 <0>        -0.1241
     32 C22        -6.6708   10.0118   -1.3196 C.3       1 <0>        -0.1313
     33 C23        -0.2153    8.4316   -1.2320 C.ar      1 <0>         0.1052
     34 C24         0.6692    8.2571   -2.2875 C.ar      1 <0>        -0.0751
     35 C25         1.6034    9.2338   -2.5732 C.ar      1 <0>        -0.1280
     36 C26         1.6662   10.3804   -1.8027 C.ar      1 <0>        -0.0782
     37 C27         0.7908   10.5567   -0.7471 C.ar      1 <0>        -0.1564
     38 C28        -0.1505    9.5853   -0.4585 C.ar      1 <0>         0.1162
     39 F1         -1.0054    9.7569    0.5735 F         1 <0>        -0.1125
     40 H4         -5.0915    2.9489    0.0537 H         1 <0>         0.0788
     41 H5         -5.0476    2.6354   -1.6979 H         1 <0>         0.0831
     42 H6         -3.8755    1.8380   -0.6214 H         1 <0>         0.0840
     43 H7         -2.1824    2.9348   -2.6838 H         1 <0>         0.1557
     44 H8         -1.3654    5.4046   -3.1004 H         1 <0>         0.1526
     45 H9         -1.8031    1.9563    1.3392 H         1 <0>         0.4090
     46 H10        -0.7025   -0.2990    0.9640 H         1 <0>         0.1239
     47 H11         1.4684   -1.4582    0.9395 H         1 <0>         0.1255
     48 H12         3.5549   -0.1647    0.7650 H         1 <0>         0.1226
     49 H13         3.4770    2.2904    0.6124 H         1 <0>         0.1244
     50 H14         1.3112    3.4591    0.6360 H         1 <0>         0.1399
     51 H15        -4.9971    8.1718   -2.0568 H         1 <0>         0.4013
     52 H16        -5.1102   10.0533    0.1863 H         1 <0>         0.0923
     53 H17        -6.5260    7.3901    0.1557 H         1 <0>         0.0735
     54 H18        -6.0514    8.4097    1.5503 H         1 <0>         0.0694
     55 H19        -7.9217    9.8995    1.2379 H         1 <0>         0.0691
     56 H20        -8.6473    8.3099    0.8288 H         1 <0>         0.0694
     57 H21        -8.7996   10.3127   -0.9697 H         1 <0>         0.0688
     58 H22        -8.3714    8.6679   -1.5365 H         1 <0>         0.0678
     59 H23        -6.6112   11.0923   -1.1889 H         1 <0>         0.0754
     60 H24        -6.4686    9.7498   -2.3582 H         1 <0>         0.0714
     61 H25         0.6246    7.3600   -2.8872 H         1 <0>         0.1352
     62 H26         2.2889    9.0997   -3.3970 H         1 <0>         0.1363
     63 H27         2.4010   11.1398   -2.0258 H         1 <0>         0.1375
     64 H28         0.8424   11.4533   -0.1472 H         1 <0>         0.1404
@<TRIPOS>BOND
     1    1    2 1
     2    1   40 1
     3    1   41 1
     4    1   42 1
     5    2    6 1
     6    2    9 1
     7    2    3 1
     8    3    4 2
     9    3   43 1
    10    4    5 1
    11    4   44 1
    12    5   23 1
    13    5    6 1
    14    5    7 1
    15    7    8 1
    16    7    9 1
    17    7   20 1
    18    9   10 1
    19    9   11 1
    20   11   12 2
    21   11   13 am
    22   13   14 1
    23   13   45 1
    24   14   19 ar
    25   14   15 ar
    26   15   16 ar
    27   15   46 1
    28   16   17 ar
    29   16   47 1
    30   17   18 ar
    31   17   48 1
    32   18   19 ar
    33   18   49 1
    34   19   50 1
    35   20   21 2
    36   20   22 am
    37   22   23 1
    38   22   33 1
    39   23   24 1
    40   23   25 1
    41   25   26 2
    42   25   27 am
    43   27   28 1
    44   27   51 1
    45   28   32 1
    46   28   29 1
    47   28   52 1
    48   29   30 1
    49   29   53 1
    50   29   54 1
    51   30   31 1
    52   30   55 1
    53   30   56 1
    54   31   32 1
    55   31   57 1
    56   31   58 1
    57   32   59 1
    58   32   60 1
    59   33   38 ar
    60   33   34 ar
    61   34   35 ar
    62   34   61 1
    63   35   36 ar
    64   35   62 1
    65   36   37 ar
    66   36   63 1
    67   37   38 ar
    68   37   64 1
    69   38   39 1
@<TRIPOS>MOLECULE
ZINC20504555
   79    82     0     0     0
SMALL
USER_CHARGES
N-[(4S,4aS,5S,6R,8aS)-5-hydroxy-4,8a-dimethyl-6-[(1S)-1-methyl-2-(4-methylpiperazin-1-yl)-2-oxo-ethyl]-4a,5,6,7,8,9-hexahydro-4H-benzo[f][1,3]benzothiazol-2-yl]-3,3-dimethyl-butanamide
@<TRIPOS>ATOM
      1 C1          2.8086    2.6204   -1.7998 C.3       1 <0>        -0.1486
      2 C2          1.4944    2.1395   -1.1813 C.3       1 <0>         0.0013
      3 H1          1.5806    2.1401   -0.0847 H         1 <0>         0.0826
      4 C3          1.1997    0.7244   -1.6545 C.2       1 <0>         0.0949
      5 C4         -0.0662    0.3697   -1.9950 C.2       1 <0>        -0.2430
      6 S1          0.1170   -1.3325   -2.4551 S.3       1 <0>         0.1463
      7 C5          1.8279   -1.4469   -2.1690 C.2       1 <0>         0.2901
      8 N1          2.1214   -0.2299   -1.7608 N.2       1 <0>        -0.5451
      9 N2          2.6696   -2.5413   -2.3302 N.am      1 <0>        -0.6272
     10 C6          2.1718   -3.7162   -2.7642 C.2       1 <0>         0.5164
     11 O1          0.9894   -3.8185   -3.0141 O.2       1 <0>        -0.4932
     12 C7          3.0843   -4.9027   -2.9389 C.3       1 <0>        -0.1257
     13 C8          2.2735   -6.1005   -3.4378 C.3       1 <0>        -0.0506
     14 C9          1.6249   -5.7540   -4.7795 C.3       1 <0>        -0.1578
     15 C10         3.1999   -7.3051   -3.6152 C.3       1 <0>        -0.1449
     16 C11         1.1850   -6.4401   -2.4177 C.3       1 <0>        -0.1579
     17 C12        -1.2846    1.2231   -1.9812 C.3       1 <0>        -0.0202
     18 C13        -0.9932    2.5008   -1.1685 C.3       1 <0>        -0.0425
     19 C14         0.3552    3.0729   -1.6118 C.3       1 <0>        -0.0567
     20 H2          0.3323    3.1778   -2.7065 H         1 <0>         0.0826
     21 C15         0.5967    4.4306   -0.9437 C.3       1 <0>         0.1286
     22 H3          0.6902    4.3182    0.1465 H         1 <0>         0.0592
     23 C16        -0.5298    5.4018   -1.2905 C.3       1 <0>        -0.0952
     24 H4         -0.3357    6.3789   -0.8239 H         1 <0>         0.0845
     25 C17        -1.8522    4.8273   -0.7734 C.3       1 <0>        -0.1235
     26 C18        -2.1167    3.4963   -1.4743 C.3       1 <0>        -0.1125
     27 C19        -0.6059    5.5782   -2.8083 C.3       1 <0>        -0.0988
     28 H5         -0.7185    4.5975   -3.2935 H         1 <0>         0.0933
     29 C20         0.6688    6.2620   -3.3068 C.3       1 <0>        -0.1677
     30 C21        -1.8008    6.4282   -3.1560 C.2       1 <0>         0.5211
     31 O2         -2.2461    7.2100   -2.3427 O.2       1 <0>        -0.5403
     32 N3         -2.3745    6.3197   -4.3707 N.am      1 <0>        -0.6153
     33 C22        -1.9126    5.3109   -5.3363 C.3       1 <0>         0.1072
     34 C23        -3.1356    4.5235   -5.8327 C.3       1 <0>         0.0386
     35 N4         -4.1397    5.4631   -6.3494 N.3       1 <0>        -0.5413
     36 C24        -4.6325    6.3525   -5.2892 C.3       1 <0>         0.0408
     37 C25        -3.4749    7.2109   -4.7682 C.3       1 <0>         0.1127
     38 C26        -5.2488    4.7468   -6.9934 C.3       1 <0>         0.0223
     39 O3          1.8383    4.9691   -1.4026 O.3       1 <0>        -0.5754
     40 C27        -0.9624    2.1913    0.3296 C.3       1 <0>        -0.1470
     41 H6          3.6255    1.9514   -1.4913 H         1 <0>         0.0505
     42 H7          3.0228    3.6432   -1.4564 H         1 <0>         0.1026
     43 H8          2.7223    2.6123   -2.8964 H         1 <0>         0.0425
     44 H9          3.7420   -2.4485   -2.1036 H         1 <0>         0.4511
     45 H10         3.8669   -4.6585   -3.6724 H         1 <0>         0.1037
     46 H11         3.5507   -5.1518   -1.9743 H         1 <0>         0.1036
     47 H12         1.0420   -6.6151   -5.1382 H         1 <0>         0.0554
     48 H13         2.4075   -5.5099   -5.5129 H         1 <0>         0.0483
     49 H14         0.9589   -4.8879   -4.6520 H         1 <0>         0.0816
     50 H15         2.6170   -8.1662   -3.9739 H         1 <0>         0.0615
     51 H16         3.6663   -7.5542   -2.6506 H         1 <0>         0.0567
     52 H17         3.9825   -7.0609   -4.3487 H         1 <0>         0.0568
     53 H18         0.6021   -7.3012   -2.7764 H         1 <0>         0.0555
     54 H19         0.5190   -5.5740   -2.2902 H         1 <0>         0.0816
     55 H20         1.6514   -6.6892   -1.4531 H         1 <0>         0.0483
     56 H21        -1.5548    1.4931   -3.0127 H         1 <0>         0.0797
     57 H22        -2.1146    0.6698   -1.5176 H         1 <0>         0.0816
     58 H23        -1.7836    4.6697    0.3131 H         1 <0>         0.0694
     59 H24        -2.6682    5.5322   -0.9909 H         1 <0>         0.0788
     60 H25        -2.1701    3.6668   -2.5597 H         1 <0>         0.0603
     61 H26        -3.0747    3.0883   -1.1197 H         1 <0>         0.0675
     62 H27         0.6141    6.3888   -4.3981 H         1 <0>         0.0474
     63 H28         1.5410    5.6416   -3.0530 H         1 <0>         0.1174
     64 H29         0.7678    7.2472   -2.8277 H         1 <0>         0.0547
     65 H30        -1.4177    5.8118   -6.1814 H         1 <0>         0.0790
     66 H31        -1.2005    4.6317   -4.8447 H         1 <0>         0.0915
     67 H32        -2.8281    3.8353   -6.6338 H         1 <0>         0.0895
     68 H33        -3.5641    3.9477   -4.9991 H         1 <0>         0.0400
     69 H34        -5.4206    7.0043   -5.6943 H         1 <0>         0.0888
     70 H35        -5.0428    5.7494   -4.4659 H         1 <0>         0.0390
     71 H36        -3.8046    7.7971   -3.8978 H         1 <0>         0.0972
     72 H37        -3.1276    7.8923   -5.5588 H         1 <0>         0.0746
     73 H38        -5.9843    5.4727   -7.3703 H         1 <0>         0.0719
     74 H39        -5.7310    4.0829   -6.2608 H         1 <0>         0.0267
     75 H40        -4.8615    4.1485   -7.8313 H         1 <0>         0.0721
     76 H41         2.1851    5.9449   -1.0319 H         1 <0>         0.4001
     77 H42        -0.7535    3.1142    0.8904 H         1 <0>         0.0630
     78 H43        -0.1749    1.4512    0.5350 H         1 <0>         0.0598
     79 H44        -1.9366    1.7860    0.6404 H         1 <0>         0.0582
@<TRIPOS>BOND
     1    1    2 1
     2    1   41 1
     3    1   42 1
     4    1   43 1
     5    2    3 1
     6    2   19 1
     7    2    4 1
     8    4    8 1
     9    4    5 2
    10    5    6 1
    11    5   17 1
    12    6    7 1
    13    7    8 2
    14    7    9 1
    15    9   10 am
    16    9   44 1
    17   10   11 2
    18   10   12 1
    19   12   13 1
    20   12   45 1
    21   12   46 1
    22   13   14 1
    23   13   15 1
    24   13   16 1
    25   14   47 1
    26   14   48 1
    27   14   49 1
    28   15   50 1
    29   15   51 1
    30   15   52 1
    31   16   53 1
    32   16   54 1
    33   16   55 1
    34   17   18 1
    35   17   56 1
    36   17   57 1
    37   18   26 1
    38   18   19 1
    39   18   40 1
    40   19   20 1
    41   19   21 1
    42   21   22 1
    43   21   23 1
    44   21   39 1
    45   23   24 1
    46   23   25 1
    47   23   27 1
    48   25   26 1
    49   25   58 1
    50   25   59 1
    51   26   60 1
    52   26   61 1
    53   27   28 1
    54   27   29 1
    55   27   30 1
    56   29   62 1
    57   29   63 1
    58   29   64 1
    59   30   31 2
    60   30   32 am
    61   32   37 1
    62   32   33 1
    63   33   34 1
    64   33   65 1
    65   33   66 1
    66   34   35 1
    67   34   67 1
    68   34   68 1
    69   35   36 1
    70   35   38 1
    71   36   37 1
    72   36   69 1
    73   36   70 1
    74   37   71 1
    75   37   72 1
    76   38   73 1
    77   38   74 1
    78   38   75 1
    79   39   76 1
    80   40   77 1
    81   40   78 1
    82   40   79 1
@<TRIPOS>MOLECULE
ZINC29414042
   64    67     0     0     0
SMALL
USER_CHARGES
4-(benzenesulfonamido)-N-[2-[(3R,5R)-3,5-dimethylpiperidine-1-carbonyl]phenyl]benzamide
@<TRIPOS>ATOM
      1 C1         -3.0498   -6.4684   -6.8648 C.3       1 <0>        -0.1492
      2 C2         -1.6475   -5.9338   -6.5672 C.3       1 <0>        -0.1083
      3 H1         -1.7210   -5.0958   -5.8584 H         1 <0>         0.0788
      4 C3         -0.9994   -5.4490   -7.8661 C.3       1 <0>        -0.1123
      5 C4          0.3905   -4.8839   -7.5647 C.3       1 <0>        -0.1069
      6 H2          0.8455   -4.5107   -8.4940 H         1 <0>         0.0844
      7 C5          1.2686   -5.9891   -6.9694 C.3       1 <0>         0.1115
      8 N1          0.5833   -6.5603   -5.8020 N.am      1 <0>        -0.5996
      9 C6         -0.7905   -7.0560   -5.9620 C.3       1 <0>         0.1017
     10 C7          1.2050   -6.6332   -4.6084 C.2       1 <0>         0.5634
     11 O1          2.3054   -6.1362   -4.4647 O.2       1 <0>        -0.5343
     12 C8          0.5506   -7.3160   -3.4765 C.ar      1 <0>        -0.1720
     13 C9         -0.0033   -8.5869   -3.6476 C.ar      1 <0>        -0.0667
     14 C10        -0.6128   -9.2197   -2.5861 C.ar      1 <0>        -0.1465
     15 C11        -0.6794   -8.6019   -1.3475 C.ar      1 <0>        -0.0724
     16 C12        -0.1321   -7.3487   -1.1617 C.ar      1 <0>        -0.1461
     17 C13         0.4811   -6.6931   -2.2214 C.ar      1 <0>         0.2081
     18 N2          1.0291   -5.4269   -2.0376 N.am      1 <0>        -0.6693
     19 C14         1.3603   -5.0091   -0.7998 C.2       1 <0>         0.5641
     20 O2          1.2689   -5.7707    0.1437 O.2       1 <0>        -0.5107
     21 C15         1.8336   -3.6282   -0.5896 C.ar      1 <0>        -0.1298
     22 C16         2.1776   -3.1932    0.6939 C.ar      1 <0>        -0.0452
     23 C17         2.6192   -1.9043    0.8866 C.ar      1 <0>        -0.1126
     24 C18         2.7241   -1.0338   -0.1949 C.ar      1 <0>         0.1588
     25 C19         2.3773   -1.4623   -1.4734 C.ar      1 <0>        -0.1189
     26 C20         1.9396   -2.7514   -1.6735 C.ar      1 <0>        -0.0749
     27 N3          3.1707    0.2679    0.0032 N.pl3     1 <0>        -1.0789
     28 S1          4.7793    0.5604    0.2668 S.o2      1 <0>         2.6906
     29 O3          4.9211    1.9689    0.3898 O.2       1 <0>        -0.9509
     30 O4          5.1939   -0.3390    1.2858 O.2       1 <0>        -0.9459
     31 C21         5.6405    0.0936   -1.1979 C.ar      1 <0>        -0.6775
     32 C22         6.0364   -1.2185   -1.3784 C.ar      1 <0>        -0.0161
     33 C23         6.7074   -1.5858   -2.5298 C.ar      1 <0>        -0.1376
     34 C24         6.9920   -0.6388   -3.4958 C.ar      1 <0>        -0.0599
     35 C25         6.6011    0.6744   -3.3127 C.ar      1 <0>        -0.1405
     36 C26         5.9251    1.0405   -2.1638 C.ar      1 <0>        -0.0201
     37 C27         0.2680   -3.7339   -6.5631 C.3       1 <0>        -0.1478
     38 H3         -3.6640   -5.6653   -7.2982 H         1 <0>         0.0605
     39 H4         -3.5132   -6.8216   -5.9318 H         1 <0>         0.0586
     40 H5         -2.9803   -7.3026   -7.5784 H         1 <0>         0.0581
     41 H6         -0.9078   -6.2918   -8.5670 H         1 <0>         0.0660
     42 H7         -1.6241   -4.6637   -8.3167 H         1 <0>         0.0680
     43 H8          1.4348   -6.7718   -7.7242 H         1 <0>         0.0701
     44 H9          2.2357   -5.5639   -6.6630 H         1 <0>         0.0960
     45 H10        -1.2016   -7.3440   -4.9832 H         1 <0>         0.0949
     46 H11        -0.7991   -7.9269   -6.6339 H         1 <0>         0.0728
     47 H12         0.0459   -9.0729   -4.6109 H         1 <0>         0.1302
     48 H13        -1.0406  -10.2023   -2.7201 H         1 <0>         0.1301
     49 H14        -1.1589   -9.1060   -0.5215 H         1 <0>         0.1314
     50 H15        -0.1844   -6.8755   -0.1922 H         1 <0>         0.1586
     51 H16         1.1919   -4.7672   -2.9026 H         1 <0>         0.4356
     52 H17         2.0964   -3.8680    1.5332 H         1 <0>         0.1466
     53 H18         2.8851   -1.5677    1.8777 H         1 <0>         0.1453
     54 H19         2.4556   -0.7832   -2.3095 H         1 <0>         0.1369
     55 H20         1.6747   -3.0844   -2.6661 H         1 <0>         0.1284
     56 H21         2.4555    1.1035   -0.0152 H         1 <0>         0.4561
     57 H22         5.8179   -1.9575   -0.6216 H         1 <0>         0.1372
     58 H23         7.0125   -2.6119   -2.6730 H         1 <0>         0.1340
     59 H24         7.5195   -0.9250   -4.3937 H         1 <0>         0.1322
     60 H25         6.8235    1.4142   -4.0674 H         1 <0>         0.1341
     61 H26         5.6197    2.0665   -2.0208 H         1 <0>         0.1414
     62 H27         1.2673   -3.3281   -6.3468 H         1 <0>         0.0555
     63 H28        -0.1864   -4.1050   -5.6326 H         1 <0>         0.0549
     64 H29        -0.3649   -2.9419   -6.9898 H         1 <0>         0.0564
@<TRIPOS>BOND
     1    1    2 1
     2    1   38 1
     3    1   39 1
     4    1   40 1
     5    2    3 1
     6    2    9 1
     7    2    4 1
     8    4    5 1
     9    4   41 1
    10    4   42 1
    11    5    6 1
    12    5    7 1
    13    5   37 1
    14    7    8 1
    15    7   43 1
    16    7   44 1
    17    8    9 1
    18    8   10 am
    19    9   45 1
    20    9   46 1
    21   10   11 2
    22   10   12 1
    23   12   17 ar
    24   12   13 ar
    25   13   14 ar
    26   13   47 1
    27   14   15 ar
    28   14   48 1
    29   15   16 ar
    30   15   49 1
    31   16   17 ar
    32   16   50 1
    33   17   18 1
    34   18   19 am
    35   18   51 1
    36   19   20 2
    37   19   21 1
    38   21   26 ar
    39   21   22 ar
    40   22   23 ar
    41   22   52 1
    42   23   24 ar
    43   23   53 1
    44   24   25 ar
    45   24   27 1
    46   25   26 ar
    47   25   54 1
    48   26   55 1
    49   27   28 1
    50   27   56 1
    51   28   29 2
    52   28   30 2
    53   28   31 1
    54   31   36 ar
    55   31   32 ar
    56   32   33 ar
    57   32   57 1
    58   33   34 ar
    59   33   58 1
    60   34   35 ar
    61   34   59 1
    62   35   36 ar
    63   35   60 1
    64   36   61 1
    65   37   62 1
    66   37   63 1
    67   37   64 1
@<TRIPOS>MOLECULE
ZINC39326702
   70    73     0     0     0
SMALL
USER_CHARGES

@<TRIPOS>ATOM
      1 C1         -0.8707    1.0943   -4.4195 C.3       1 <0>        -0.1493
      2 C2         -0.4593   -0.2273   -3.7676 C.3       1 <0>         0.0765
      3 C3          0.8608   -0.0370   -3.0179 C.3       1 <0>        -0.1821
      4 O1         -1.4730   -0.6414   -2.8495 O.3       1 <0>        -0.3050
      5 C4         -1.5413   -1.9672   -2.5632 C.ar      1 <0>         0.1548
      6 C5         -0.5836   -2.8362   -3.0595 C.ar      1 <0>        -0.2128
      7 C6         -0.6539   -4.1854   -2.7677 C.ar      1 <0>        -0.0674
      8 C7         -1.6792   -4.6792   -1.9789 C.ar      1 <0>        -0.1561
      9 C8         -2.6411   -3.8288   -1.4763 C.ar      1 <0>        -0.0697
     10 C9         -2.5784   -2.4616   -1.7591 C.ar      1 <0>        -0.1048
     11 C10        -3.5982   -1.5466   -1.2206 C.2       1 <0>        -0.0355
     12 C11        -4.8707   -1.9619   -1.0857 C.2       1 <0>        -0.1152
     13 C12        -5.3046   -3.3146   -1.6089 C.3       1 <0>         0.1539
     14 N1         -6.6606   -3.1260   -2.1591 N.am      1 <0>        -0.6175
     15 C13        -7.6900   -2.5927   -1.2645 C.3       1 <0>         0.1613
     16 C14        -7.1779   -1.3906   -0.5093 C.2       1 <0>        -0.1719
     17 C15        -5.8768   -1.1124   -0.4185 C.2       1 <0>         0.1255
     18 O2         -5.4277   -0.0389    0.2831 O.3       1 <0>        -0.2474
     19 C16        -6.2478    0.9963    0.5291 C.2       1 <0>         0.4369
     20 C17        -7.5946    0.8372    0.4894 C.2       1 <0>        -0.2762
     21 C18        -8.1977   -0.4980    0.1597 C.3       1 <0>         0.0939
     22 H1         -9.0501   -0.3636   -0.5062 H         1 <0>         0.1034
     23 C19        -8.6636   -1.1461    1.4379 C.ar      1 <0>        -0.1097
     24 C20        -7.7567   -1.4246    2.4424 C.ar      1 <0>        -0.0645
     25 C21        -8.1833   -2.0196    3.6150 C.ar      1 <0>        -0.1562
     26 C22        -9.5183   -2.3372    3.7861 C.ar      1 <0>        -0.0792
     27 C23       -10.4289   -2.0605    2.7851 C.ar      1 <0>        -0.2098
     28 C24       -10.0041   -1.4585    1.6094 C.ar      1 <0>         0.1402
     29 O3        -10.8991   -1.1801    0.6253 O.3       1 <0>        -0.3078
     30 C25       -12.2728   -1.4637    0.8985 C.3       1 <0>         0.0774
     31 C26       -13.1605   -0.5682    0.0319 C.3       1 <0>        -0.1500
     32 C27       -12.5637   -2.9316    0.5800 C.3       1 <0>        -0.1796
     33 C28        -8.4500    1.9546    0.7542 C.1       1 <0>         0.2758
     34 N2         -9.1287    2.8411    0.9642 N.1       1 <0>        -0.4484
     35 N3         -5.7177    2.2277    0.8240 N.pl3     1 <0>        -0.8302
     36 C29        -6.9419   -3.4335   -3.4408 C.2       1 <0>         0.5205
     37 O4         -6.0985   -3.9564   -4.1381 O.2       1 <0>        -0.5374
     38 C30        -8.3043   -3.1274   -4.0076 C.3       1 <0>        -0.1781
     39 H2         -0.0975    1.4101   -5.1198 H         1 <0>         0.0785
     40 H3         -1.8112    0.9587   -4.9536 H         1 <0>         0.0656
     41 H4         -0.9966    1.8555   -3.6496 H         1 <0>         0.0672
     42 H5         -0.3334   -0.9886   -4.5375 H         1 <0>         0.0747
     43 H6          0.7350    0.7243   -2.2480 H         1 <0>         0.0683
     44 H7          1.1539   -0.9785   -2.5535 H         1 <0>         0.0639
     45 H8          1.6341    0.2789   -3.7182 H         1 <0>         0.0735
     46 H9          0.2191   -2.4589   -3.6758 H         1 <0>         0.1324
     47 H10         0.0953   -4.8586   -3.1575 H         1 <0>         0.1270
     48 H11        -1.7258   -5.7351   -1.7567 H         1 <0>         0.1284
     49 H12        -3.4394   -4.2180   -0.8618 H         1 <0>         0.1349
     50 H13        -3.3248   -0.5418   -0.9339 H         1 <0>         0.1332
     51 H14        -4.6251   -3.6488   -2.3929 H         1 <0>         0.1201
     52 H15        -5.3275   -4.0409   -0.7964 H         1 <0>         0.0871
     53 H16        -8.5603   -2.3020   -1.8529 H         1 <0>         0.1045
     54 H17        -7.9815   -3.3653   -0.5530 H         1 <0>         0.0887
     55 H18        -6.7135   -1.1775    2.3112 H         1 <0>         0.1221
     56 H19        -7.4727   -2.2371    4.3987 H         1 <0>         0.1223
     57 H20        -9.8490   -2.8024    4.7030 H         1 <0>         0.1231
     58 H21       -11.4714   -2.3088    2.9192 H         1 <0>         0.1289
     59 H22       -12.4810   -1.2721    1.9511 H         1 <0>         0.0728
     60 H23       -12.9524   -0.7597   -1.0207 H         1 <0>         0.0677
     61 H24       -14.2083   -0.7844    0.2403 H         1 <0>         0.0769
     62 H25       -12.9533    0.4776    0.2588 H         1 <0>         0.0644
     63 H26       -11.9313   -3.5696    1.1974 H         1 <0>         0.0631
     64 H27       -13.6115   -3.1478    0.7884 H         1 <0>         0.0716
     65 H28       -12.3556   -3.1231   -0.4726 H         1 <0>         0.0683
     66 H29        -4.7556    2.3469    0.8540 H         1 <0>         0.4109
     67 H30        -6.3053    2.9785    1.0024 H         1 <0>         0.4249
     68 H31        -8.3265   -2.0976   -4.3641 H         1 <0>         0.0961
     69 H32        -8.5132   -3.8035   -4.8366 H         1 <0>         0.0954
     70 H33        -9.0586   -3.2597   -3.2319 H         1 <0>         0.0849
@<TRIPOS>BOND
     1    1    2 1
     2    1   39 1
     3    1   40 1
     4    1   41 1
     5    2    3 1
     6    2    4 1
     7    2   42 1
     8    3   43 1
     9    3   44 1
    10    3   45 1
    11    4    5 1
    12    5   10 ar
    13    5    6 ar
    14    6    7 ar
    15    6   46 1
    16    7    8 ar
    17    7   47 1
    18    8    9 ar
    19    8   48 1
    20    9   10 ar
    21    9   49 1
    22   10   11 1
    23   11   12 2
    24   11   50 1
    25   12   17 1
    26   12   13 1
    27   13   14 1
    28   13   51 1
    29   13   52 1
    30   14   15 1
    31   14   36 am
    32   15   16 1
    33   15   53 1
    34   15   54 1
    35   16   21 1
    36   16   17 2
    37   17   18 1
    38   18   19 1
    39   19   20 2
    40   19   35 1
    41   20   21 1
    42   20   33 1
    43   21   22 1
    44   21   23 1
    45   23   28 ar
    46   23   24 ar
    47   24   25 ar
    48   24   55 1
    49   25   26 ar
    50   25   56 1
    51   26   27 ar
    52   26   57 1
    53   27   28 ar
    54   27   58 1
    55   28   29 1
    56   29   30 1
    57   30   31 1
    58   30   32 1
    59   30   59 1
    60   31   60 1
    61   31   61 1
    62   31   62 1
    63   32   63 1
    64   32   64 1
    65   32   65 1
    66   33   34 3
    67   35   66 1
    68   35   67 1
    69   36   37 2
    70   36   38 1
    71   38   68 1
    72   38   69 1
    73   38   70 1
@<TRIPOS>MOLECULE
ZINC13958100
   55    58     0     0     0
SMALL
USER_CHARGES

@<TRIPOS>ATOM
      1 C1         -0.0184    1.5028    0.0103 C.3       1 <0>        -0.1266
      2 C2          0.0021   -0.0041    0.0020 C.ar      1 <0>        -0.0618
      3 C3          0.0057   -0.6888   -1.1991 C.ar      1 <0>        -0.1095
      4 C4          0.0245   -2.0707   -1.2067 C.ar      1 <0>        -0.1052
      5 C5          0.0400   -2.7685   -0.0132 C.ar      1 <0>        -0.1280
      6 C6          0.0373   -2.0840    1.1875 C.ar      1 <0>        -0.0901
      7 C7          0.0229   -0.7015    1.1951 C.ar      1 <0>        -0.0788
      8 C8          0.0252    0.0449    2.5043 C.3       1 <0>        -0.1229
      9 C9          0.0595   -4.2753   -0.0215 C.3       1 <0>         0.1773
     10 H1         -0.2824   -4.6446    0.9454 H         1 <0>         0.1200
     11 C10         1.4884   -4.7600   -0.2699 C.3       1 <0>        -0.1528
     12 C11         1.5123   -6.2956   -0.3266 C.3       1 <0>         0.1095
     13 H2          1.2728   -6.7069    0.6540 H         1 <0>         0.1623
     14 N1          0.4990   -6.7094   -1.3029 N.pl3     1 <0>        -0.3752
     15 C12        -0.5963   -5.9184   -1.6280 C.cat     1 <0>         0.4883
     16 N2         -0.8403   -4.7654   -1.0727 N.pl3     1 <0>        -0.6254
     17 C13        -1.3446   -6.6421   -2.6540 C.2       1 <0>        -0.2133
     18 C14        -0.6943   -7.8117   -2.8759 C.2       1 <0>         0.2139
     19 N3          0.4205   -7.8756   -2.0557 N.pl3     1 <0>        -0.4378
     20 C15        -1.1097   -8.8532   -3.8392 C.2       1 <0>         0.5890
     21 O1         -0.4512   -9.8682   -3.9586 O.2       1 <0>        -0.4688
     22 N4         -2.2184   -8.6775   -4.5852 N.am      1 <0>        -0.4337
     23 C16        -2.7475   -9.6316   -5.5739 C.3       1 <0>         0.3242
     24 C17        -4.0072   -8.9222   -6.1107 C.3       1 <0>        -0.1523
     25 C18        -4.0422   -7.6196   -5.3436 C.2       1 <0>         0.1314
     26 N5         -3.0571   -7.5656   -4.5442 N.2       1 <0>        -0.2916
     27 C19        -5.0917   -6.5494   -5.4998 C.3       1 <0>        -0.0829
     28 C20        -3.1182  -10.9553   -4.9022 C.3       1 <0>         0.4142
     29 F1         -4.0706  -10.7212   -3.9045 F         1 <0>        -0.2125
     30 F2         -3.6481  -11.8302   -5.8566 F         1 <0>        -0.1834
     31 F3         -1.9750  -11.5248   -4.3313 F         1 <0>        -0.1735
     32 O2         -1.8026   -9.8449   -6.6245 O.3       1 <0>        -0.7766
     33 C21         2.8943   -6.7791   -0.7707 C.3       1 <0>         0.4522
     34 F4          3.8586   -6.3361    0.1409 F         1 <0>        -0.1519
     35 F5          2.9058   -8.1772   -0.8191 F         1 <0>        -0.1676
     36 F6          3.1821   -6.2661   -2.0401 F         1 <0>        -0.1603
     37 H3          1.0042    1.8801    0.0026 H         1 <0>         0.0776
     38 H4         -0.5455    1.8639   -0.8728 H         1 <0>         0.0724
     39 H5         -0.5286    1.8543    0.9071 H         1 <0>         0.0743
     40 H6         -0.0064   -0.1437   -2.1314 H         1 <0>         0.1313
     41 H7          0.0266   -2.6056   -2.1449 H         1 <0>         0.1245
     42 H8          0.0491   -2.6290    2.1199 H         1 <0>         0.1303
     43 H9         -1.0017    0.2110    2.8297 H         1 <0>         0.0765
     44 H10         0.5542   -0.5412    3.2558 H         1 <0>         0.0703
     45 H11         0.5249    1.0049    2.3743 H         1 <0>         0.0739
     46 H12         1.8488   -4.3566   -1.2162 H         1 <0>         0.1153
     47 H13         2.1335   -4.4169    0.5389 H         1 <0>         0.1488
     48 H14        -2.2471   -6.3079   -3.1442 H         1 <0>         0.2257
     49 H15         1.0463   -8.6155   -2.0136 H         1 <0>         0.4697
     50 H16        -3.9141   -8.7341   -7.1803 H         1 <0>         0.1146
     51 H17        -4.8983   -9.5139   -5.9012 H         1 <0>         0.0908
     52 H18        -5.9096   -6.7383   -4.8045 H         1 <0>         0.0877
     53 H19        -4.6516   -5.5752   -5.2871 H         1 <0>         0.0791
     54 H20        -5.4730   -6.5608   -6.5209 H         1 <0>         0.0870
     55 H21        -1.6063   -4.2386   -1.3497 H         1 <0>         0.4505
@<TRIPOS>BOND
     1    1    2 1
     2    1   37 1
     3    1   38 1
     4    1   39 1
     5    2    7 ar
     6    2    3 ar
     7    3    4 ar
     8    3   40 1
     9    4    5 ar
    10    4   41 1
    11    5    6 ar
    12    5    9 1
    13    6    7 ar
    14    6   42 1
    15    7    8 1
    16    8   43 1
    17    8   44 1
    18    8   45 1
    19    9   10 1
    20    9   16 1
    21    9   11 1
    22   11   12 1
    23   11   46 1
    24   11   47 1
    25   12   13 1
    26   12   14 1
    27   12   33 1
    28   14   19 1
    29   14   15 1
    30   15   16 2
    31   15   17 1
    32   16   55 1
    33   17   18 2
    34   17   48 1
    35   18   19 1
    36   18   20 1
    37   19   49 1
    38   20   21 2
    39   20   22 am
    40   22   26 1
    41   22   23 1
    42   23   24 1
    43   23   28 1
    44   23   32 1
    45   24   25 1
    46   24   50 1
    47   24   51 1
    48   25   26 2
    49   25   27 1
    50   27   52 1
    51   27   53 1
    52   27   54 1
    53   28   29 1
    54   28   30 1
    55   28   31 1
    56   33   34 1
    57   33   35 1
    58   33   36 1
@<TRIPOS>MOLECULE
ZINC12485518
   67    71     0     0     0
SMALL
USER_CHARGES
N-[3-[(S)-2,3-dihydro-1,4-benzodioxin-6-yl-[(3S,5S)-3,5-dimethyl-1-piperidyl]methyl]-4,5-dimethyl-2-thienyl]furan-2-carboxamide
@<TRIPOS>ATOM
      1 C1         -0.7092   -1.1129    4.3166 C.3       1 <0>        -0.1061
      2 C2         -1.1329    0.3020    4.6159 C.2       1 <0>        -0.1030
      3 C3         -1.8019    0.5916    5.7577 C.2       1 <0>        -0.1577
      4 S1         -2.0533    2.3524    5.6064 S.3       1 <0>         0.2241
      5 C4         -1.2436    2.5894    4.0331 C.2       1 <0>         0.0478
      6 C5         -0.8397    1.3235    3.7311 C.2       1 <0>        -0.1890
      7 C6         -0.0926    1.0408    2.4533 C.3       1 <0>         0.1470
      8 H1         -0.1308   -0.0272    2.2387 H         1 <0>         0.1605
      9 C7          1.3435    1.4716    2.6052 C.ar      1 <0>        -0.1243
     10 C8          1.6820    2.8051    2.4692 C.ar      1 <0>        -0.1273
     11 C9          2.9973    3.2045    2.6115 C.ar      1 <0>        -0.0933
     12 C10         3.9830    2.2666    2.8810 C.ar      1 <0>         0.0785
     13 C11         3.6432    0.9257    3.0148 C.ar      1 <0>         0.0717
     14 C12         2.3206    0.5321    2.8746 C.ar      1 <0>        -0.0787
     15 O1          4.5935   -0.0098    3.2874 O.3       1 <0>        -0.2983
     16 C13         5.9544    0.3680    3.0533 C.3       1 <0>         0.0185
     17 C14         6.1756    1.7640    3.6515 C.3       1 <0>         0.0165
     18 O2          5.2753    2.6739    3.0100 O.3       1 <0>        -0.2983
     19 C15        -2.0953    1.3423    1.1271 C.3       1 <0>        -0.0039
     20 C16        -2.7545    2.2340    0.0724 C.3       1 <0>        -0.1136
     21 H2         -3.7760    1.8963   -0.1027 H         1 <0>         0.1256
     22 C17        -1.9565    2.1490   -1.2317 C.3       1 <0>        -0.1280
     23 C18        -0.5086    2.5684   -0.9630 C.3       1 <0>        -0.1147
     24 H3         -0.4862    3.6053   -0.6279 H         1 <0>         0.0910
     25 C19         0.0855    1.6670    0.1217 C.3       1 <0>        -0.0125
     26 C20         0.3103    2.4291   -2.2479 C.3       1 <0>        -0.1496
     27 C21        -2.7729    3.6818    0.5666 C.3       1 <0>        -0.1712
     28 N1         -1.0697    3.7661    3.3018 N.am      1 <0>        -0.6338
     29 C22        -1.4379    4.9494    3.8315 C.2       1 <0>         0.6079
     30 O3         -1.8374    5.0041    4.9800 O.2       1 <0>        -0.4563
     31 C23        -1.3572    6.1709    3.0244 C.2       1 <0>        -0.1151
     32 C24        -1.6107    7.4396    3.4614 C.2       1 <0>        -0.0768
     33 C25        -1.4120    8.2917    2.3636 C.2       1 <0>        -0.2182
     34 C26        -1.0506    7.5157    1.3181 C.2       1 <0>         0.0184
     35 O4         -1.0138    6.2389    1.7215 O.3       1 <0>        -0.1791
     36 C27        -2.2293   -0.3350    6.8667 C.3       1 <0>        -0.0752
     37 H4          0.2840   -1.2897    4.7295 H         1 <0>         0.0794
     38 H5         -1.4186   -1.8074    4.7665 H         1 <0>         0.0813
     39 H6         -0.6865   -1.2648    3.2375 H         1 <0>         0.0608
     40 H7          0.9167    3.5364    2.2550 H         1 <0>         0.1057
     41 H8          3.2586    4.2473    2.5086 H         1 <0>         0.1477
     42 H9          2.0541   -0.5095    2.9764 H         1 <0>         0.1481
     43 H10         6.1499    0.3923    1.9813 H         1 <0>         0.0860
     44 H11         6.6222   -0.3475    3.5332 H         1 <0>         0.1340
     45 H12         7.2040    2.0800    3.4769 H         1 <0>         0.1341
     46 H13         5.9746    1.7417    4.7225 H         1 <0>         0.0864
     47 H14        -2.6529    1.4116    2.0611 H         1 <0>         0.1295
     48 H15        -2.0949    0.3090    0.7802 H         1 <0>         0.1397
     49 H16        -1.9760    1.1250   -1.6046 H         1 <0>         0.0877
     50 H17        -2.3974    2.8159   -1.9726 H         1 <0>         0.0978
     51 H18         0.0756    0.6321   -0.2203 H         1 <0>         0.1392
     52 H19         1.1118    1.9723    0.3257 H         1 <0>         0.1327
     53 H20        -0.1652    2.9999   -3.0455 H         1 <0>         0.0792
     54 H21         1.3178    2.8095   -2.0797 H         1 <0>         0.0688
     55 H22         0.3617    1.3785   -2.5339 H         1 <0>         0.0693
     56 H23        -1.7511    4.0194    0.7402 H         1 <0>         0.0391
     57 H24        -3.2424    4.3164   -0.1850 H         1 <0>         0.0924
     58 H25        -3.3381    3.7411    1.4967 H         1 <0>         0.0717
     59 H26        -0.6839    3.7319    2.4124 H         1 <0>         0.3933
     60 H27        -1.9066    7.7310    4.4583 H         1 <0>         0.1696
     61 H28        -1.5268    9.3655    2.3561 H         1 <0>         0.1683
     62 H29        -0.8247    7.8674    0.3223 H         1 <0>         0.2207
     63 H30        -2.7538    0.2344    7.6340 H         1 <0>         0.0785
     64 H31        -2.8930   -1.1006    6.4650 H         1 <0>         0.0881
     65 H32        -1.3501   -0.8089    7.3033 H         1 <0>         0.0878
     66 N2         -0.7129    1.8134    1.3572 N.4       1 <0>        -0.3987
     67 H33        -0.7387    2.8052    1.6215 H         1 <0>         0.3979
@<TRIPOS>BOND
     1    1    2 1
     2    1   37 1
     3    1   38 1
     4    1   39 1
     5    2    6 1
     6    2    3 2
     7    3    4 1
     8    3   36 1
     9    4    5 1
    10    5    6 2
    11    5   28 1
    12    6    7 1
    13    7    8 1
    14    7    9 1
    15    7   66 1
    16    9   14 ar
    17    9   10 ar
    18   10   11 ar
    19   10   40 1
    20   11   12 ar
    21   11   41 1
    22   12   18 1
    23   12   13 ar
    24   13   14 ar
    25   13   15 1
    26   14   42 1
    27   15   16 1
    28   16   17 1
    29   16   43 1
    30   16   44 1
    31   17   18 1
    32   17   45 1
    33   17   46 1
    34   19   20 1
    35   19   47 1
    36   19   48 1
    37   19   66 1
    38   20   21 1
    39   20   22 1
    40   20   27 1
    41   22   23 1
    42   22   49 1
    43   22   50 1
    44   23   24 1
    45   23   25 1
    46   23   26 1
    47   25   51 1
    48   25   52 1
    49   25   66 1
    50   26   53 1
    51   26   54 1
    52   26   55 1
    53   27   56 1
    54   27   57 1
    55   27   58 1
    56   28   29 am
    57   28   59 1
    58   29   30 2
    59   29   31 1
    60   31   35 1
    61   31   32 2
    62   32   33 1
    63   32   60 1
    64   33   34 2
    65   33   61 1
    66   34   35 1
    67   34   62 1
    68   36   63 1
    69   36   64 1
    70   36   65 1
    71   66   67 1
@<TRIPOS>MOLECULE
ZINC31045561
   50    53     0     0     0
SMALL
USER_CHARGES
(3R)-N-(4-bromo-2-fluoro-phenyl)-1-[[3-(4-chlorophenyl)-1,2,4-oxadiazol-5-yl]methyl]piperidine-3-carboxamide
@<TRIPOS>ATOM
      1 C1         -0.1877    5.6966   -5.6325 C.ar      1 <0>        -0.0571
      2 C2         -0.2010    6.8293   -6.4205 C.ar      1 <0>        -0.1120
      3 C3         -1.0915    6.9307   -7.4758 C.ar      1 <0>        -0.0059
      4 C4         -1.9678    5.8945   -7.7500 C.ar      1 <0>        -0.1095
      5 C5         -1.9575    4.7551   -6.9718 C.ar      1 <0>        -0.0630
      6 C6         -1.0635    4.6485   -5.9083 C.ar      1 <0>        -0.0469
      7 C7         -1.0484    3.4251   -5.0683 C.2       1 <0>         0.2346
      8 N1         -0.2433    3.1895   -4.0078 N.2       1 <0>        -0.4238
      9 C8         -0.5700    1.9969   -3.5762 C.2       1 <0>         0.1035
     10 O1         -1.5518    1.5483   -4.3645 O.3       1 <0>         0.1132
     11 N2         -1.8144    2.3751   -5.2123 N.2       1 <0>        -0.3398
     12 C9          0.0416    1.2697   -2.4065 C.3       1 <0>         0.1081
     13 N3         -0.6984    1.6023   -1.1819 N.4       1 <0>        -0.4010
     14 C10        -2.0722    1.0870   -1.2408 C.3       1 <0>        -0.0167
     15 C11        -2.8542    1.5747   -0.0190 C.3       1 <0>        -0.1409
     16 C12        -2.1595    1.0845    1.2545 C.3       1 <0>        -0.1339
     17 C13        -0.7162    1.5947    1.2675 C.3       1 <0>        -0.1274
     18 H1         -0.7057    2.6940    1.3040 H         1 <0>         0.1295
     19 C14         0.0041    1.1065    0.0086 C.3       1 <0>         0.0139
     20 C15        -0.0077    1.0678    2.4888 C.2       1 <0>         0.5288
     21 O2          0.9768    0.3702    2.3650 O.2       1 <0>        -0.5117
     22 N4         -0.4679    1.3718    3.7185 N.am      1 <0>        -0.6718
     23 C16         0.1333    0.8071    4.8507 C.ar      1 <0>         0.1202
     24 C17         1.5001    0.5656    4.8649 C.ar      1 <0>        -0.0883
     25 C18         2.0916    0.0136    5.9846 C.ar      1 <0>        -0.0794
     26 C19         1.3220   -0.3092    7.0881 C.ar      1 <0>        -0.0737
     27 C20        -0.0415   -0.0751    7.0766 C.ar      1 <0>        -0.1065
     28 C21        -0.6387    0.4822    5.9605 C.ar      1 <0>         0.0866
     29 F1         -1.9703    0.7100    5.9486 F         1 <0>        -0.1286
     30 Br1         2.1355   -1.0713    8.6156 Br        1 <0>        -0.0196
     31 Cl1        -1.1088    8.3615   -8.4588 Cl        1 <0>        -0.0437
     32 H2          0.5037    5.6205   -4.8063 H         1 <0>         0.1449
     33 H3          0.4807    7.6402   -6.2105 H         1 <0>         0.1482
     34 H4         -2.6604    5.9781   -8.5745 H         1 <0>         0.1486
     35 H5         -2.6411    3.9470   -7.1869 H         1 <0>         0.1421
     36 H6         -0.0088    0.1850   -2.5822 H         1 <0>         0.1694
     37 H7          1.0925    1.5745   -2.2941 H         1 <0>         0.1790
     38 H8         -2.5609    1.4498   -2.1571 H         1 <0>         0.1286
     39 H9         -2.0514   -0.0128   -1.2472 H         1 <0>         0.1402
     40 H10        -2.8881    2.6742   -0.0203 H         1 <0>         0.0935
     41 H11        -3.8788    1.1763   -0.0564 H         1 <0>         0.1236
     42 H12        -2.6951    1.4684    2.1353 H         1 <0>         0.1037
     43 H13        -2.1629   -0.0153    1.2739 H         1 <0>         0.0943
     44 H14         0.0153    0.0066   -0.0038 H         1 <0>         0.1457
     45 H15         1.0374    1.4837    0.0083 H         1 <0>         0.1488
     46 H16        -1.3156    2.0634    3.8331 H         1 <0>         0.4445
     47 H17         2.1014    0.8129    4.0025 H         1 <0>         0.1571
     48 H18         3.1557   -0.1707    5.9967 H         1 <0>         0.1480
     49 H19        -0.6398   -0.3280    7.9394 H         1 <0>         0.1544
     50 H20        -0.7544    2.6982   -1.1060 H         1 <0>         0.4482
@<TRIPOS>BOND
     1    1    6 ar
     2    1    2 ar
     3    1   32 1
     4    2    3 ar
     5    2   33 1
     6    3    4 ar
     7    3   31 1
     8    4    5 ar
     9    4   34 1
    10    5    6 ar
    11    5   35 1
    12    6    7 1
    13    7   11 2
    14    7    8 1
    15    8    9 2
    16    9   10 1
    17    9   12 1
    18   10   11 1
    19   12   13 1
    20   12   36 1
    21   12   37 1
    22   13   19 1
    23   13   14 1
    24   13   50 1
    25   14   15 1
    26   14   38 1
    27   14   39 1
    28   15   16 1
    29   15   40 1
    30   15   41 1
    31   16   17 1
    32   16   42 1
    33   16   43 1
    34   17   18 1
    35   17   19 1
    36   17   20 1
    37   19   44 1
    38   19   45 1
    39   20   21 2
    40   20   22 am
    41   22   23 1
    42   22   46 1
    43   23   28 ar
    44   23   24 ar
    45   24   25 ar
    46   24   47 1
    47   25   26 ar
    48   25   48 1
    49   26   27 ar
    50   26   30 1
    51   27   28 ar
    52   27   49 1
    53   28   29 1
@<TRIPOS>MOLECULE
ZINC38966169
   34    36     0     0     0
SMALL
USER_CHARGES

@<TRIPOS>ATOM
      1 C1          0.0007    1.3692   -0.0423 C.ar      1 <0>        -0.1017
      2 C2          1.1914    2.0717   -0.0614 C.ar      1 <0>        -0.0617
      3 C3          2.3947    1.3923   -0.0713 C.ar      1 <0>        -0.0986
      4 C4          2.4078    0.0086   -0.0617 C.ar      1 <0>        -0.0167
      5 C5          1.2162   -0.6937   -0.0421 C.ar      1 <0>        -0.1306
      6 C6          0.0131   -0.0129   -0.0327 C.ar      1 <0>        -0.0640
      7 C7          1.2296   -2.2006   -0.0321 C.3       1 <0>         0.2623
      8 H1          1.3217   -2.5881   -1.0467 H         1 <0>         0.2385
      9 N1          2.3240   -2.7016    0.8134 N.2       1 <0>         0.0598
     10 N2          1.8287   -3.3601    1.7316 N.pl3     1 <0>        -0.1548
     11 C8          0.4708   -3.4188    1.6825 C.2       1 <0>         0.2581
     12 S1         -0.5159   -4.2510    2.8072 S.2       1 <0>        -0.2220
     13 N3          0.0118   -2.7248    0.6137 N.pl3     1 <0>        -0.3535
     14 N4         -1.3180   -2.5440    0.2113 N.2       1 <0>        -0.2047
     15 C9         -2.2743   -3.1690    0.8295 C.2       1 <0>         0.1815
     16 C10        -3.6593   -3.0672    0.3376 C.ar      1 <0>        -0.1097
     17 C11        -4.6917   -3.7332    1.0031 C.ar      1 <0>        -0.0027
     18 C12        -5.9867   -3.6335    0.5377 C.ar      1 <0>        -0.1079
     19 C13        -6.2680   -2.8754   -0.5872 C.ar      1 <0>        -0.0014
     20 C14        -5.2548   -2.2121   -1.2545 C.ar      1 <0>        -0.1305
     21 C15        -3.9493   -2.2971   -0.7968 C.ar      1 <0>         0.2061
     22 O1         -2.9542   -1.6409   -1.4482 O.3       1 <0>        -0.4670
     23 Br1        -5.6520   -1.1811   -2.7891 Br        1 <0>         0.0044
     24 Br2        -7.3831   -4.5358    1.4387 Br        1 <0>        -0.0009
     25 Cl1         3.9191   -0.8456   -0.0748 Cl        1 <0>        -0.0297
     26 H2         -0.9394    1.9006   -0.0304 H         1 <0>         0.1500
     27 H3          1.1811    3.1516   -0.0689 H         1 <0>         0.1524
     28 H4          3.3247    1.9411   -0.0870 H         1 <0>         0.1550
     29 H5         -0.9173   -0.5611   -0.0178 H         1 <0>         0.1637
     30 H6         -2.0541   -3.7632    1.7040 H         1 <0>         0.2014
     31 H7         -4.4763   -4.3254    1.8801 H         1 <0>         0.1608
     32 H8         -7.2844   -2.8024   -0.9451 H         1 <0>         0.1608
     33 H9         -2.5357   -2.1579   -2.1500 H         1 <0>         0.4048
     34 H10         2.3560   -3.7936    2.4208 H         1 <0>         0.4987
@<TRIPOS>BOND
     1    1    6 ar
     2    1    2 ar
     3    1   26 1
     4    2    3 ar
     5    2   27 1
     6    3    4 ar
     7    3   28 1
     8    4    5 ar
     9    4   25 1
    10    5    6 ar
    11    5    7 1
    12    6   29 1
    13    7    8 1
    14    7   13 1
    15    7    9 1
    16    9   10 2
    17   10   11 1
    18   10   34 1
    19   11   12 2
    20   11   13 1
    21   13   14 1
    22   14   15 2
    23   15   16 1
    24   15   30 1
    25   16   21 ar
    26   16   17 ar
    27   17   18 ar
    28   17   31 1
    29   18   19 ar
    30   18   24 1
    31   19   20 ar
    32   19   32 1
    33   20   21 ar
    34   20   23 1
    35   21   22 1
    36   22   33 1
@<TRIPOS>MOLECULE
ZINC58948814
   72    75     0     0     0
SMALL
USER_CHARGES

@<TRIPOS>ATOM
      1 C1         -0.0184    1.5028    0.0103 C.3       1 <0>        -0.1279
      2 C2          0.0021   -0.0041    0.0020 C.ar      1 <0>        -0.0255
      3 C3          0.0057   -0.6887   -1.1989 C.ar      1 <0>        -0.1410
      4 C4          0.0245   -2.0709   -1.2065 C.ar      1 <0>        -0.0157
      5 C5          0.0400   -2.7685   -0.0132 C.ar      1 <0>        -0.6859
      6 C6          0.0373   -2.0839    1.1877 C.ar      1 <0>        -0.0177
      7 C7          0.0229   -0.7016    1.1953 C.ar      1 <0>        -0.1427
      8 S1          0.0628   -4.5303   -0.0229 S.o2      1 <0>         2.6900
      9 O1         -0.4759   -4.9503    1.2232 O.2       1 <0>        -0.9541
     10 O2         -0.4897   -4.9367   -1.2674 O.2       1 <0>        -0.9492
     11 N1          1.6509   -4.9994   -0.0343 N.pl3     1 <0>        -0.9992
     12 C8          2.3635   -5.1987   -1.3036 C.3       1 <0>         0.1162
     13 C9          2.9843   -6.5992   -1.3059 C.3       1 <0>        -0.1140
     14 C10         3.8585   -6.7674   -0.0611 C.3       1 <0>        -0.1036
     15 C11         2.9948   -6.6240    1.1941 C.3       1 <0>        -0.1222
     16 C12         2.3758   -5.2183    1.2248 C.3       1 <0>         0.1190
     17 C13         4.4979   -8.1319   -0.0774 C.2       1 <0>         0.5186
     18 O3          4.2764   -8.8946   -0.9940 O.2       1 <0>        -0.5232
     19 N2          5.3161   -8.5048    0.9267 N.am      1 <0>        -0.7318
     20 C14         5.9377   -9.8313    0.9109 C.3       1 <0>         0.1499
     21 C15         6.7986   -9.9972    2.1366 C.ar      1 <0>        -0.0691
     22 C16         8.1287   -9.6220    2.1029 C.ar      1 <0>        -0.0951
     23 C17         8.9184   -9.7742    3.2272 C.ar      1 <0>        -0.0927
     24 C18         8.3780  -10.3011    4.3853 C.ar      1 <0>        -0.1533
     25 C19         7.0477  -10.6755    4.4192 C.ar      1 <0>        -0.0962
     26 C20         6.2569  -10.5193    3.2963 C.ar      1 <0>        -0.0956
     27 C21         9.2392  -10.4680    5.6107 C.3       1 <0>         0.0427
     28 N3          9.1717   -9.2481    6.4264 N.4       1 <0>        -0.3807
     29 C22         7.8027   -9.0699    6.9250 C.3       1 <0>        -0.0133
     30 C23         7.7076   -7.7586    7.7079 C.3       1 <0>        -0.1440
     31 C24         8.6810   -7.8040    8.8893 C.3       1 <0>        -0.1353
     32 C25        10.0953   -8.0645    8.3630 C.3       1 <0>        -0.1102
     33 H1         10.4038   -7.2375    7.7235 H         1 <0>         0.0930
     34 C26        10.1019   -9.3645    7.5559 C.3       1 <0>        -0.0060
     35 C27        11.0640   -8.1885    9.5408 C.3       1 <0>        -0.1522
     36 H2          1.0042    1.8801    0.0026 H         1 <0>         0.0806
     37 H3         -0.5455    1.8639   -0.8728 H         1 <0>         0.0752
     38 H4         -0.5286    1.8543    0.9071 H         1 <0>         0.0745
     39 H5         -0.0064   -0.1436   -2.1312 H         1 <0>         0.1348
     40 H6          0.0266   -2.6057   -2.1448 H         1 <0>         0.1403
     41 H7          0.0491   -2.6289    2.1200 H         1 <0>         0.1383
     42 H8          0.0245   -0.1667    2.1335 H         1 <0>         0.1335
     43 H9          1.6632   -5.1080   -2.1339 H         1 <0>         0.1015
     44 H10         3.1498   -4.4503   -1.4026 H         1 <0>         0.0742
     45 H11         2.1924   -7.3482   -1.2982 H         1 <0>         0.0802
     46 H12         3.5956   -6.7247   -2.1995 H         1 <0>         0.0881
     47 H13         4.6352   -6.0027   -0.0568 H         1 <0>         0.1026
     48 H14         2.2028   -7.3727    1.1783 H         1 <0>         0.0791
     49 H15         3.6137   -6.7671    2.0799 H         1 <0>         0.0771
     50 H16         3.1631   -4.4716    1.3278 H         1 <0>         0.0744
     51 H17         1.6836   -5.1406    2.0633 H         1 <0>         0.0993
     52 H18         5.4933   -7.8948    1.6598 H         1 <0>         0.3998
     53 H19         5.1613  -10.5963    0.9060 H         1 <0>         0.0842
     54 H20         6.5538   -9.9332    0.0176 H         1 <0>         0.0841
     55 H21         8.5509   -9.2103    1.1981 H         1 <0>         0.1381
     56 H22         9.9577   -9.4817    3.2007 H         1 <0>         0.1340
     57 H23         6.6256  -11.0875    5.3239 H         1 <0>         0.1339
     58 H24         5.2167  -10.8083    3.3239 H         1 <0>         0.1386
     59 H25         8.8804  -11.3157    6.1943 H         1 <0>         0.1360
     60 H26        10.2711  -10.6460    5.3080 H         1 <0>         0.1376
     61 H27         7.1108   -9.0410    6.0832 H         1 <0>         0.1305
     62 H28         7.5434   -9.9025    7.5789 H         1 <0>         0.1278
     63 H29         7.9666   -6.9252    7.0548 H         1 <0>         0.0863
     64 H30         6.6909   -7.6290    8.0787 H         1 <0>         0.1121
     65 H31         8.6583   -6.8506    9.4171 H         1 <0>         0.0943
     66 H32         8.3917   -8.6054    9.5692 H         1 <0>         0.0825
     67 H33         9.7936  -10.1909    8.1963 H         1 <0>         0.1294
     68 H34        11.1075   -9.5531    7.1798 H         1 <0>         0.1304
     69 H35        10.7558   -9.0166   10.1791 H         1 <0>         0.0675
     70 H36        12.0704   -8.3739    9.1656 H         1 <0>         0.0686
     71 H37        11.0557   -7.2632   10.1170 H         1 <0>         0.0776
     72 H38         9.4280   -8.4524    5.8615 H         1 <0>         0.4212
@<TRIPOS>BOND
     1    1    2 1
     2    1   36 1
     3    1   37 1
     4    1   38 1
     5    2    7 ar
     6    2    3 ar
     7    3    4 ar
     8    3   39 1
     9    4    5 ar
    10    4   40 1
    11    5    6 ar
    12    5    8 1
    13    6    7 ar
    14    6   41 1
    15    7   42 1
    16    8    9 2
    17    8   10 2
    18    8   11 1
    19   11   16 1
    20   11   12 1
    21   12   13 1
    22   12   43 1
    23   12   44 1
    24   13   14 1
    25   13   45 1
    26   13   46 1
    27   14   15 1
    28   14   17 1
    29   14   47 1
    30   15   16 1
    31   15   48 1
    32   15   49 1
    33   16   50 1
    34   16   51 1
    35   17   18 2
    36   17   19 am
    37   19   20 1
    38   19   52 1
    39   20   21 1
    40   20   53 1
    41   20   54 1
    42   21   26 ar
    43   21   22 ar
    44   22   23 ar
    45   22   55 1
    46   23   24 ar
    47   23   56 1
    48   24   25 ar
    49   24   27 1
    50   25   26 ar
    51   25   57 1
    52   26   58 1
    53   27   28 1
    54   27   59 1
    55   27   60 1
    56   28   34 1
    57   28   29 1
    58   28   72 1
    59   29   30 1
    60   29   61 1
    61   29   62 1
    62   30   31 1
    63   30   63 1
    64   30   64 1
    65   31   32 1
    66   31   65 1
    67   31   66 1
    68   32   33 1
    69   32   34 1
    70   32   35 1
    71   34   67 1
    72   34   68 1
    73   35   69 1
    74   35   70 1
    75   35   71 1
@<TRIPOS>MOLECULE
ZINC64746094
   60    64     0     0     0
SMALL
USER_CHARGES

@<TRIPOS>ATOM
      1 C1         -0.0178    1.4648    0.0101 C.3       1 <0>        -0.0475
      2 N1          0.0021   -0.0041    0.0020 N.4       1 <0>        -0.3860
      3 C2         -1.3762   -0.5105    0.0016 C.3       1 <0>        -0.0224
      4 C3         -1.3581   -2.0376   -0.1225 C.3       1 <0>         0.1054
      5 N2         -0.5114   -2.5826    0.9500 N.pl3     1 <0>        -0.5740
      6 C4          0.8341   -2.0147    1.1271 C.3       1 <0>         0.1032
      7 C5          0.7126   -0.4887    1.1922 C.3       1 <0>        -0.0226
      8 C6         -0.9683   -3.6015    1.7703 C.2       1 <0>         0.3531
      9 N3         -0.3582   -4.1915    2.7615 N.2       1 <0>        -0.3186
     10 N4         -0.9723   -5.2081    3.4866 N.pl3     1 <0>        -0.3393
     11 C7         -0.6774   -6.0432    4.5540 C.2       1 <0>         0.3777
     12 C8         -1.7628   -6.8400    4.7656 C.2       1 <0>        -0.0236
     13 N5         -2.7085   -6.5053    3.8492 N.2       1 <0>        -0.3661
     14 C9         -2.2446   -5.5498    3.1010 C.2       1 <0>         0.1224
     15 S1         -2.5456   -4.4382    1.7466 S.3       1 <0>         0.1216
     16 C10        -1.8886   -7.8844    5.8079 C.ar      1 <0>         0.0297
     17 C11        -0.7752   -8.6364    6.1837 C.ar      1 <0>        -0.1206
     18 C12        -0.8984   -9.6080    7.1552 C.ar      1 <0>        -0.0807
     19 C13        -2.1240   -9.8378    7.7566 C.ar      1 <0>        -0.0921
     20 C14        -3.2324   -9.0951    7.3875 C.ar      1 <0>        -0.0818
     21 C15        -3.1197   -8.1162    6.4219 C.ar      1 <0>        -0.0889
     22 Br1        -2.2848  -11.1720    9.0871 Br        1 <0>        -0.0436
     23 N6          0.5165   -6.0642    5.2805 N.pl3     1 <0>        -0.7178
     24 C16         1.6009   -5.1420    4.9344 C.3       1 <0>         0.1615
     25 C17         2.3989   -5.7305    3.7529 C.3       1 <0>        -0.1251
     26 C18         3.1478   -4.6132    3.0783 C.3       1 <0>        -0.1048
     27 C19         4.5879   -4.4663    3.6056 C.3       1 <0>        -0.1192
     28 C20         4.6820   -4.6167    5.1361 C.3       1 <0>        -0.1248
     29 C21         3.5629   -3.9119    5.8539 C.3       1 <0>        -0.1047
     30 C22         2.4298   -4.9263    6.1110 C.3       1 <0>        -0.1371
     31 H1          1.0047    1.8421    0.0024 H         1 <0>         0.1277
     32 H2         -0.5450    1.8259   -0.8730 H         1 <0>         0.1283
     33 H3         -0.5280    1.8163    0.9069 H         1 <0>         0.1235
     34 H4         -1.8678   -0.2272    0.9323 H         1 <0>         0.1387
     35 H5         -1.9199   -0.0838   -0.8413 H         1 <0>         0.1531
     36 H6         -2.3718   -2.4253   -0.0215 H         1 <0>         0.1281
     37 H7         -0.9491   -2.3215   -1.0921 H         1 <0>         0.1110
     38 H8          1.2698   -2.3873    2.0542 H         1 <0>         0.1347
     39 H9          1.4645   -2.2963    0.2836 H         1 <0>         0.1038
     40 H10         1.7080   -0.0460    1.2266 H         1 <0>         0.1498
     41 H11         0.1578   -0.2061    2.0868 H         1 <0>         0.1367
     42 H12         0.1813   -8.4584    5.7146 H         1 <0>         0.1283
     43 H13        -0.0372  -10.1908    7.4469 H         1 <0>         0.1373
     44 H14        -4.1861   -9.2792    7.8596 H         1 <0>         0.1381
     45 H15        -3.9840   -7.5340    6.1381 H         1 <0>         0.1375
     46 H16         0.6270   -6.6893    6.0140 H         1 <0>         0.4194
     47 H17         1.1692   -4.1895    4.6273 H         1 <0>         0.0789
     48 H18         3.1052   -6.4740    4.1222 H         1 <0>         0.0703
     49 H19         1.7137   -6.1932    3.0426 H         1 <0>         0.0603
     50 H20         3.1828   -4.8088    2.0066 H         1 <0>         0.0555
     51 H21         2.6134   -3.6782    3.2469 H         1 <0>         0.0548
     52 H22         5.2126   -5.2276    3.1385 H         1 <0>         0.0616
     53 H23         4.9664   -3.4834    3.3251 H         1 <0>         0.0582
     54 H24         4.6508   -5.6765    5.3888 H         1 <0>         0.0640
     55 H25         5.6326   -4.2035    5.4732 H         1 <0>         0.0639
     56 H26         3.9265   -3.5205    6.8039 H         1 <0>         0.0713
     57 H27         3.1895   -3.0946    5.2368 H         1 <0>         0.0631
     58 H28         1.8023   -4.5565    6.9219 H         1 <0>         0.0694
     59 H29         2.8691   -5.8772    6.4126 H         1 <0>         0.0719
     60 H30         0.4772   -0.3282   -0.8270 H         1 <0>         0.4276
@<TRIPOS>BOND
     1    1    2 1
     2    1   31 1
     3    1   32 1
     4    1   33 1
     5    2    7 1
     6    2    3 1
     7    2   60 1
     8    3    4 1
     9    3   34 1
    10    3   35 1
    11    4    5 1
    12    4   36 1
    13    4   37 1
    14    5    6 1
    15    5    8 1
    16    6    7 1
    17    6   38 1
    18    6   39 1
    19    7   40 1
    20    7   41 1
    21    8   15 1
    22    8    9 2
    23    9   10 1
    24   10   14 1
    25   10   11 1
    26   11   12 2
    27   11   23 1
    28   12   13 1
    29   12   16 1
    30   13   14 2
    31   14   15 1
    32   16   21 ar
    33   16   17 ar
    34   17   18 ar
    35   17   42 1
    36   18   19 ar
    37   18   43 1
    38   19   20 ar
    39   19   22 1
    40   20   21 ar
    41   20   44 1
    42   21   45 1
    43   23   24 1
    44   23   46 1
    45   24   30 1
    46   24   25 1
    47   24   47 1
    48   25   26 1
    49   25   48 1
    50   25   49 1
    51   26   27 1
    52   26   50 1
    53   26   51 1
    54   27   28 1
    55   27   52 1
    56   27   53 1
    57   28   29 1
    58   28   54 1
    59   28   55 1
    60   29   30 1
    61   29   56 1
    62   29   57 1
    63   30   58 1
    64   30   59 1
@<TRIPOS>MOLECULE
ZINC14672882
   68    72     0     0     0
SMALL
USER_CHARGES
(3S)-2-[2-(4-benzhydrylpiperazin-1-yl)-2-oxo-ethyl]-3,4-dihydro-1H-isoquinoline-3-carboxamide
@<TRIPOS>ATOM
      1 C1         -0.5151   11.9009   -8.4734 C.ar      1 <0>        -0.1132
      2 C2          0.8342   12.0731   -8.2275 C.ar      1 <0>        -0.1178
      3 C3          1.3064   12.0662   -6.9283 C.ar      1 <0>        -0.1122
      4 C4          0.4292   11.8870   -5.8751 C.ar      1 <0>        -0.0848
      5 C5         -0.9194   11.7096   -6.1213 C.ar      1 <0>        -0.0917
      6 C6         -1.3923   11.7218   -7.4202 C.ar      1 <0>        -0.1223
      7 C7          0.9440   11.8790   -4.4587 C.3       1 <0>         0.1741
      8 C8          0.5866   13.1798   -3.7870 C.ar      1 <0>        -0.0846
      9 C9         -0.7156   13.4168   -3.3883 C.ar      1 <0>        -0.0917
     10 C10        -1.0425   14.6080   -2.7677 C.ar      1 <0>        -0.1224
     11 C11        -0.0693   15.5665   -2.5553 C.ar      1 <0>        -0.1134
     12 C12         1.2318   15.3316   -2.9587 C.ar      1 <0>        -0.1180
     13 C13         1.5598   14.1383   -3.5746 C.ar      1 <0>        -0.1124
     14 N1          0.3341   10.7638   -3.7223 N.3       1 <0>        -0.5272
     15 C14         0.6250    9.4803   -4.3750 C.3       1 <0>         0.0377
     16 C15        -0.1730    8.3683   -3.6860 C.3       1 <0>         0.1138
     17 N2          0.1139    8.4119   -2.2441 N.am      1 <0>        -0.5811
     18 C16        -0.0289    9.6980   -1.5448 C.3       1 <0>         0.0997
     19 C17         0.7692   10.7589   -2.3193 C.3       1 <0>         0.0374
     20 C18         0.4922    7.3018   -1.5801 C.2       1 <0>         0.5046
     21 O1          0.6000    6.2485   -2.1716 O.2       1 <0>        -0.5354
     22 C19         0.7812    7.3692   -0.1026 C.3       1 <0>        -0.0498
     23 N3          1.1707    6.0380    0.3814 N.4       1 <0>        -0.3662
     24 C20         2.4298    5.6035   -0.2318 C.3       1 <0>         0.0367
     25 C21         2.7674    4.1992    0.1956 C.ar      1 <0>        -0.1220
     26 C22         4.0696    3.7522    0.0251 C.ar      1 <0>        -0.0941
     27 C23         4.4225    2.4714    0.3991 C.ar      1 <0>        -0.1023
     28 C24         3.4732    1.6274    0.9452 C.ar      1 <0>        -0.0939
     29 C25         2.1758    2.0687    1.1103 C.ar      1 <0>        -0.1018
     30 C26         1.8221    3.3581    0.7421 C.ar      1 <0>        -0.0890
     31 C27         0.3968    3.8005    0.9528 C.3       1 <0>        -0.0888
     32 C28         0.1103    5.0513    0.1213 C.3       1 <0>         0.0002
     33 H1          0.1024    4.8238   -0.9549 H         1 <0>         0.1810
     34 C29        -1.2257    5.6288    0.5121 C.2       1 <0>         0.5139
     35 O2         -1.3045    6.3950    1.4489 O.2       1 <0>        -0.5390
     36 N4         -2.3329    5.2939   -0.1796 N.am      1 <0>        -0.8459
     37 H2         -0.8840   11.9060   -9.4885 H         1 <0>         0.1234
     38 H3          1.5196   12.2127   -9.0504 H         1 <0>         0.1240
     39 H4          2.3607   12.2003   -6.7362 H         1 <0>         0.1186
     40 H5         -1.6041   11.5652   -5.2986 H         1 <0>         0.1270
     41 H6         -2.4465   11.5869   -7.6123 H         1 <0>         0.1231
     42 H7          2.0347   11.7365   -4.4526 H         1 <0>         0.0586
     43 H8         -1.4769   12.6698   -3.5582 H         1 <0>         0.1271
     44 H9         -2.0591   14.7917   -2.4528 H         1 <0>         0.1231
     45 H10        -0.3256   16.4990   -2.0745 H         1 <0>         0.1233
     46 H11         1.9921   16.0806   -2.7931 H         1 <0>         0.1239
     47 H12         2.5763   13.9549   -3.8901 H         1 <0>         0.1187
     48 H13         0.3390    9.5353   -5.4357 H         1 <0>         0.1032
     49 H14         1.7007    9.2642   -4.2960 H         1 <0>         0.0423
     50 H15        -1.2476    8.5266   -3.8597 H         1 <0>         0.0905
     51 H16         0.1254    7.3932   -4.0986 H         1 <0>         0.1046
     52 H17        -1.0918    9.9786   -1.5067 H         1 <0>         0.0976
     53 H18         0.3624    9.6042   -0.5211 H         1 <0>         0.0885
     54 H19         1.8423   10.5224   -2.2690 H         1 <0>         0.0431
     55 H20         0.5911   11.7500   -1.8767 H         1 <0>         0.1041
     56 H21         1.6012    8.0796    0.0786 H         1 <0>         0.1639
     57 H22        -0.1195    7.7048    0.4323 H         1 <0>         0.1762
     58 H23         2.3325    5.6301   -1.3272 H         1 <0>         0.1556
     59 H24         3.2414    6.2770    0.0806 H         1 <0>         0.1407
     60 H25         4.8116    4.4103   -0.4024 H         1 <0>         0.1339
     61 H26         5.4381    2.1292    0.2658 H         1 <0>         0.1375
     62 H27         3.7451    0.6239    1.2377 H         1 <0>         0.1371
     63 H28         1.4332    1.4078    1.5323 H         1 <0>         0.1351
     64 H29        -0.2864    2.9957    0.6438 H         1 <0>         0.1263
     65 H30         0.2371    4.0285    2.0170 H         1 <0>         0.1103
     66 H31        -3.3081    5.7154    0.1056 H         1 <0>         0.4479
     67 H32        -2.2614    4.5991   -1.0294 H         1 <0>         0.4367
     68 H33         1.3235    6.1101    1.4683 H         1 <0>         0.4561
@<TRIPOS>BOND
     1    1    6 ar
     2    1    2 ar
     3    1   37 1
     4    2    3 ar
     5    2   38 1
     6    3    4 ar
     7    3   39 1
     8    4    5 ar
     9    4    7 1
    10    5    6 ar
    11    5   40 1
    12    6   41 1
    13    7    8 1
    14    7   14 1
    15    7   42 1
    16    8   13 ar
    17    8    9 ar
    18    9   10 ar
    19    9   43 1
    20   10   11 ar
    21   10   44 1
    22   11   12 ar
    23   11   45 1
    24   12   13 ar
    25   12   46 1
    26   13   47 1
    27   14   19 1
    28   14   15 1
    29   15   16 1
    30   15   48 1
    31   15   49 1
    32   16   17 1
    33   16   50 1
    34   16   51 1
    35   17   18 1
    36   17   20 am
    37   18   19 1
    38   18   52 1
    39   18   53 1
    40   19   54 1
    41   19   55 1
    42   20   21 2
    43   20   22 1
    44   22   23 1
    45   22   56 1
    46   22   57 1
    47   23   32 1
    48   23   24 1
    49   23   68 1
    50   24   25 1
    51   24   58 1
    52   24   59 1
    53   25   30 ar
    54   25   26 ar
    55   26   27 ar
    56   26   60 1
    57   27   28 ar
    58   27   61 1
    59   28   29 ar
    60   28   62 1
    61   29   30 ar
    62   29   63 1
    63   30   31 1
    64   31   32 1
    65   31   64 1
    66   31   65 1
    67   32   33 1
    68   32   34 1
    69   34   35 2
    70   34   36 am
    71   36   66 1
    72   36   67 1
@<TRIPOS>MOLECULE
ZINC39633759
   69    73     0     0     0
SMALL
USER_CHARGES

@<TRIPOS>ATOM
      1 C1         -0.1147    1.2594    0.3674 C.ar      1 <0>        -0.0665
      2 C2          1.0860    1.9334    0.4393 C.ar      1 <0>        -0.1518
      3 C3          2.2773    1.2276    0.5023 C.ar      1 <0>         0.1197
      4 C4          2.2692   -0.1585    0.4930 C.ar      1 <0>        -0.1481
      5 C5          1.0746   -0.8431    0.4209 C.ar      1 <0>        -0.0574
      6 C6         -0.1289   -0.1372    0.3581 C.ar      1 <0>        -0.0474
      7 C7         -1.4116   -0.8647    0.2817 C.2       1 <0>         0.0771
      8 C8         -1.5573   -2.2225    0.2708 C.2       1 <0>        -0.2009
      9 C9         -2.9278   -2.4884    0.1906 C.2       1 <0>        -0.0932
     10 C10        -3.5681   -1.2689    0.1555 C.2       1 <0>        -0.0944
     11 O1         -2.6293   -0.3007    0.2172 O.3       1 <0>        -0.1573
     12 C11        -5.0154   -1.0594    0.0717 C.2       1 <0>         0.6346
     13 O2         -5.7671   -2.0157    0.0262 O.2       1 <0>        -0.5107
     14 N1         -5.5147    0.1922    0.0448 N.am      1 <0>        -0.6179
     15 C12        -4.7654    1.4701    0.0841 C.3       1 <0>         0.1085
     16 C13        -5.5140    2.3922   -0.9042 C.3       1 <0>        -0.1147
     17 H1         -5.0426    2.3580   -1.8865 H         1 <0>         0.1110
     18 C14        -6.9390    1.8181   -0.9739 C.3       1 <0>        -0.0713
     19 C15        -6.9373    0.6014   -0.0372 C.3       1 <0>         0.1103
     20 C16        -7.2627    1.3788   -2.3987 C.3       1 <0>        -0.1348
     21 C17        -8.7040    0.8647   -2.4542 C.3       1 <0>        -0.0112
     22 N2         -9.6215    1.9285   -2.0283 N.4       1 <0>        -0.5045
     23 C18        -9.3641    2.2806   -0.6267 C.3       1 <0>        -0.0082
     24 C19        -7.9506    2.8543   -0.4938 C.3       1 <0>        -0.1482
     25 C20        -5.5404    3.8066   -0.3850 C.2       1 <0>         0.5203
     26 O3         -5.5563    4.0137    0.8099 O.2       1 <0>        -0.5182
     27 N3         -5.5463    4.8415   -1.2484 N.am      1 <0>        -0.7262
     28 C21        -5.5719    6.2165   -0.7436 C.3       1 <0>         0.1472
     29 C22        -7.0269    6.5950   -0.3991 C.3       1 <0>        -0.1186
     30 C23        -7.0047    7.7521    0.5626 C.3       1 <0>        -0.1195
     31 C24        -7.1217    9.1131   -0.1499 C.3       1 <0>        -0.1208
     32 C25        -6.2761    9.1888   -1.4356 C.3       1 <0>        -0.1211
     33 C26        -4.9180    8.5626   -1.2694 C.3       1 <0>        -0.1131
     34 C27        -4.9921    7.0976   -1.7464 C.3       1 <0>        -0.1320
     35 F1          3.4509    1.8932    0.5727 F         1 <0>        -0.1300
     36 H2         -1.0425    1.8102    0.3227 H         1 <0>         0.1360
     37 H3          1.0982    3.0133    0.4461 H         1 <0>         0.1439
     38 H4          3.2005   -0.7033    0.5420 H         1 <0>         0.1482
     39 H5          1.0696   -1.9231    0.4130 H         1 <0>         0.1436
     40 H6         -0.7634   -2.9534    0.3154 H         1 <0>         0.1651
     41 H7         -3.3944   -3.4620    0.1614 H         1 <0>         0.1674
     42 H8         -4.7870    1.8926    1.0887 H         1 <0>         0.1018
     43 H9         -3.7368    1.3177   -0.2430 H         1 <0>         0.1019
     44 H10        -7.5408   -0.2027   -0.4583 H         1 <0>         0.0922
     45 H11        -7.3099    0.8821    0.9479 H         1 <0>         0.0882
     46 H12        -7.1524    2.2267   -3.0748 H         1 <0>         0.0968
     47 H13        -6.5806    0.5830   -2.6979 H         1 <0>         0.1182
     48 H14        -8.9437    0.5654   -3.4746 H         1 <0>         0.1404
     49 H15        -8.8094    0.0068   -1.7901 H         1 <0>         0.1347
     50 H16        -9.4837    2.7421   -2.6089 H         1 <0>         0.4275
     51 H17       -10.0903    3.0249   -0.3001 H         1 <0>         0.1396
     52 H18        -9.4540    1.3891   -0.0060 H         1 <0>         0.1339
     53 H19        -7.7537    3.0986    0.5501 H         1 <0>         0.1279
     54 H20        -7.8649    3.7552   -1.1013 H         1 <0>         0.0983
     55 H21        -5.5335    4.6758   -2.2041 H         1 <0>         0.3984
     56 H22        -4.9704    6.2703    0.1638 H         1 <0>         0.0895
     57 H23        -7.5550    6.8841   -1.3077 H         1 <0>         0.0667
     58 H24        -7.5269    5.7440    0.0634 H         1 <0>         0.0618
     59 H25        -7.8356    7.6468    1.2603 H         1 <0>         0.0626
     60 H26        -6.0704    7.7268    1.1234 H         1 <0>         0.0651
     61 H27        -8.1668    9.2872   -0.4058 H         1 <0>         0.0595
     62 H28        -6.7940    9.8968    0.5331 H         1 <0>         0.0636
     63 H29        -6.8060    8.6742   -2.2371 H         1 <0>         0.0589
     64 H30        -6.1502   10.2352   -1.7137 H         1 <0>         0.0640
     65 H31        -4.1881    9.1064   -1.8691 H         1 <0>         0.0721
     66 H32        -4.6275    8.5914   -0.2192 H         1 <0>         0.0712
     67 H33        -3.9854    6.7514   -1.9809 H         1 <0>         0.0692
     68 H34        -5.5989    7.0510   -2.6506 H         1 <0>         0.0666
     69 H35       -10.5735    1.6079   -2.1238 H         1 <0>         0.4345
@<TRIPOS>BOND
     1    1    6 ar
     2    1    2 ar
     3    1   36 1
     4    2    3 ar
     5    2   37 1
     6    3    4 ar
     7    3   35 1
     8    4    5 ar
     9    4   38 1
    10    5    6 ar
    11    5   39 1
    12    6    7 1
    13    7   11 1
    14    7    8 2
    15    8    9 1
    16    8   40 1
    17    9   10 2
    18    9   41 1
    19   10   11 1
    20   10   12 1
    21   12   13 2
    22   12   14 am
    23   14   19 1
    24   14   15 1
    25   15   16 1
    26   15   42 1
    27   15   43 1
    28   16   17 1
    29   16   18 1
    30   16   25 1
    31   18   24 1
    32   18   19 1
    33   18   20 1
    34   19   44 1
    35   19   45 1
    36   20   21 1
    37   20   46 1
    38   20   47 1
    39   21   22 1
    40   21   48 1
    41   21   49 1
    42   22   23 1
    43   22   50 1
    44   22   69 1
    45   23   24 1
    46   23   51 1
    47   23   52 1
    48   24   53 1
    49   24   54 1
    50   25   26 2
    51   25   27 am
    52   27   28 1
    53   27   55 1
    54   28   34 1
    55   28   29 1
    56   28   56 1
    57   29   30 1
    58   29   57 1
    59   29   58 1
    60   30   31 1
    61   30   59 1
    62   30   60 1
    63   31   32 1
    64   31   61 1
    65   31   62 1
    66   32   33 1
    67   32   63 1
    68   32   64 1
    69   33   34 1
    70   33   65 1
    71   33   66 1
    72   34   67 1
    73   34   68 1
@<TRIPOS>MOLECULE
ZINC39684666
   65    67     0     0     0
SMALL
USER_CHARGES

@<TRIPOS>ATOM
      1 C1         -1.7657    1.6475   -2.3350 C.3       1 <0>        -0.1667
      2 C2         -0.2953    1.5381   -1.9267 C.3       1 <0>         0.1502
      3 H1         -0.2203    1.0082   -0.9772 H         1 <0>         0.0921
      4 C3          0.2979    2.9404   -1.7764 C.3       1 <0>        -0.0754
      5 C4         -0.4741    3.7082   -0.7015 C.3       1 <0>        -0.1469
      6 C5          1.7684    2.8311   -1.3681 C.3       1 <0>        -0.1440
      7 C6          0.1927    3.6843   -3.1092 C.3       1 <0>        -0.1446
      8 N1          0.4439    0.8030   -2.9559 N.am      1 <0>        -0.7239
      9 C7          0.4713   -0.5443   -2.9331 C.2       1 <0>         0.5131
     10 O1         -0.1160   -1.1481   -2.0605 O.2       1 <0>        -0.5091
     11 C8          1.2317   -1.3006   -3.9919 C.3       1 <0>        -0.1154
     12 H2          2.1182   -0.7424   -4.2930 H         1 <0>         0.1184
     13 C9          1.6283   -2.7008   -3.4727 C.3       1 <0>         0.1213
     14 N2          0.5534   -3.5983   -3.9577 N.am      1 <0>        -0.6134
     15 C10         0.2505   -3.1064   -5.3231 C.3       1 <0>         0.0881
     16 C11         0.3304   -1.5710   -5.2082 C.3       1 <0>        -0.0727
     17 C12        -1.0600   -0.9874   -4.9758 C.3       1 <0>        -0.1498
     18 C13        -1.9203   -1.2192   -6.2212 C.3       1 <0>        -0.0105
     19 N3         -1.2871   -0.5804   -7.3812 N.4       1 <0>        -0.5047
     20 C14         0.0101   -1.2107   -7.6542 C.3       1 <0>        -0.0113
     21 C15         0.9520   -0.9788   -6.4693 C.3       1 <0>        -0.1348
     22 C16        -0.0195   -4.6289   -3.3050 C.2       1 <0>         0.5887
     23 O2          0.2492   -4.8335   -2.1370 O.2       1 <0>        -0.4967
     24 C17        -0.9731   -5.5093   -4.0081 C.ar      1 <0>        -0.1155
     25 C18        -0.9652   -5.5773   -5.4037 C.ar      1 <0>        -0.0851
     26 C19        -1.8571   -6.4004   -6.0568 C.ar      1 <0>        -0.0592
     27 C20        -2.7643   -7.1622   -5.3286 C.ar      1 <0>         0.1460
     28 C21        -2.7751   -7.0970   -3.9397 C.ar      1 <0>        -0.0524
     29 C22        -1.8820   -6.2809   -3.2795 C.ar      1 <0>        -0.0313
     30 Cl1        -3.9103   -8.0499   -3.0359 Cl        1 <0>        -0.0192
     31 O3         -3.6420   -7.9712   -5.9754 O.3       1 <0>        -0.3193
     32 C23        -3.2196   -9.3117   -6.2336 C.3       1 <0>         0.0330
     33 Cl2        -1.8483   -6.4858   -7.7907 Cl        1 <0>        -0.0345
     34 H3         -1.8407    2.1774   -3.2845 H         1 <0>         0.0570
     35 H4         -2.1883    0.6485   -2.4421 H         1 <0>         0.0571
     36 H5         -2.3157    2.1945   -1.5692 H         1 <0>         0.0746
     37 H6         -0.3991    3.1783    0.2481 H         1 <0>         0.0608
     38 H7         -0.0515    4.7072   -0.5944 H         1 <0>         0.0639
     39 H8         -1.5217    3.7861   -0.9923 H         1 <0>         0.0620
     40 H9          2.3184    2.2841   -2.1339 H         1 <0>         0.0526
     41 H10         2.1910    3.8301   -1.2610 H         1 <0>         0.0617
     42 H11         1.8434    2.3011   -0.4185 H         1 <0>         0.0589
     43 H12        -0.8549    3.7622   -3.4001 H         1 <0>         0.0610
     44 H13         0.6153    4.6833   -3.0021 H         1 <0>         0.0640
     45 H14         0.7427    3.1373   -3.8750 H         1 <0>         0.0470
     46 H15         0.9137    1.2859   -3.6539 H         1 <0>         0.3960
     47 H16         2.5904   -3.0015   -3.8874 H         1 <0>         0.0905
     48 H17         1.6648   -2.7059   -2.3833 H         1 <0>         0.1058
     49 H18         0.9923   -3.4729   -6.0327 H         1 <0>         0.0926
     50 H19        -0.7507   -3.4140   -5.6249 H         1 <0>         0.0916
     51 H20        -1.5215   -1.4772   -4.1183 H         1 <0>         0.1228
     52 H21        -0.9782    0.0824   -4.7840 H         1 <0>         0.1010
     53 H22        -2.0150   -2.2898   -6.4030 H         1 <0>         0.1317
     54 H23        -2.9094   -0.7888   -6.0645 H         1 <0>         0.1401
     55 H24        -1.8852   -0.6820   -8.1875 H         1 <0>         0.4348
     56 H25        -0.1304   -2.2814   -7.8023 H         1 <0>         0.1322
     57 H26         0.4439   -0.7738   -8.5537 H         1 <0>         0.1418
     58 H27         1.1062    0.0913   -6.3309 H         1 <0>         0.0991
     59 H28         1.9089   -1.4626   -6.6650 H         1 <0>         0.1236
     60 H29        -0.2613   -4.9854   -5.9699 H         1 <0>         0.1522
     61 H30        -1.8877   -6.2344   -2.2005 H         1 <0>         0.1606
     62 H31        -2.3232   -9.2971   -6.8535 H         1 <0>         0.0544
     63 H32        -3.0008   -9.8118   -5.2901 H         1 <0>         0.0563
     64 H33        -4.0126   -9.8486   -6.7541 H         1 <0>         0.1092
     65 H34        -1.1492    0.4006   -7.1896 H         1 <0>         0.4286
@<TRIPOS>BOND
     1    1    2 1
     2    1   34 1
     3    1   35 1
     4    1   36 1
     5    2    3 1
     6    2    4 1
     7    2    8 1
     8    4    5 1
     9    4    6 1
    10    4    7 1
    11    5   37 1
    12    5   38 1
    13    5   39 1
    14    6   40 1
    15    6   41 1
    16    6   42 1
    17    7   43 1
    18    7   44 1
    19    7   45 1
    20    8    9 am
    21    8   46 1
    22    9   10 2
    23    9   11 1
    24   11   12 1
    25   11   16 1
    26   11   13 1
    27   13   14 1
    28   13   47 1
    29   13   48 1
    30   14   15 1
    31   14   22 am
    32   15   16 1
    33   15   49 1
    34   15   50 1
    35   16   21 1
    36   16   17 1
    37   17   18 1
    38   17   51 1
    39   17   52 1
    40   18   19 1
    41   18   53 1
    42   18   54 1
    43   19   20 1
    44   19   55 1
    45   19   65 1
    46   20   21 1
    47   20   56 1
    48   20   57 1
    49   21   58 1
    50   21   59 1
    51   22   23 2
    52   22   24 1
    53   24   29 ar
    54   24   25 ar
    55   25   26 ar
    56   25   60 1
    57   26   27 ar
    58   26   33 1
    59   27   28 ar
    60   27   31 1
    61   28   29 ar
    62   28   30 1
    63   29   61 1
    64   31   32 1
    65   32   62 1
    66   32   63 1
    67   32   64 1
@<TRIPOS>MOLECULE
ZINC59588681
   54    57     0     0     0
SMALL
USER_CHARGES

@<TRIPOS>ATOM
      1 C1         -0.0144    1.3775   -0.0008 C.ar      1 <0>        -0.0612
      2 C2          1.1686    2.0860   -0.0016 C.ar      1 <0>        -0.1362
      3 C3          2.3835    1.4119   -0.0199 C.ar      1 <0>         0.1803
      4 C4          2.4095    0.0227   -0.0379 C.ar      1 <0>        -0.1135
      5 C5          1.2291   -0.6901   -0.0371 C.ar      1 <0>        -0.0796
      6 C6          0.0092   -0.0160   -0.0184 C.ar      1 <0>        -0.0773
      7 C7         -1.2623   -0.7807   -0.0170 C.2       1 <0>         0.0928
      8 C8         -2.5157   -0.2525   -0.0057 C.2       1 <0>         0.0279
      9 N1         -3.3808   -1.3047   -0.0095 N.pl3     1 <0>        -0.3994
     10 C9         -2.6434   -2.4416   -0.0217 C.cat     1 <0>         0.3138
     11 N2         -1.3824   -2.1252   -0.0327 N.pl3     1 <0>        -0.4758
     12 C10        -3.2360   -3.8314   -0.0273 C.3       1 <0>        -0.0704
     13 C11        -4.7101   -3.7260    0.3831 C.3       1 <0>        -0.1317
     14 C12        -5.3851   -2.6242   -0.4389 C.3       1 <0>        -0.1484
     15 C13        -4.8452   -1.2578   -0.0028 C.3       1 <0>         0.0906
     16 N3          3.5825    2.1330   -0.0207 N.am      1 <0>        -0.6769
     17 C14         4.6575    1.6538    0.6360 C.2       1 <0>         0.5235
     18 O1          4.6118    0.5594    1.1569 O.2       1 <0>        -0.5062
     19 C15         5.9164    2.4777    0.7230 C.3       1 <0>        -0.1548
     20 C16         6.9752    1.7090    1.5159 C.3       1 <0>         0.1336
     21 N4          8.1990    2.5100    1.6005 N.am      1 <0>        -0.7305
     22 C17         9.2740    2.0308    2.2572 C.2       1 <0>         0.5617
     23 O2          9.2281    0.9340    2.7793 O.2       1 <0>        -0.5231
     24 C18        10.5086    2.8388    2.3425 C.ar      1 <0>        -0.1249
     25 C19        10.5624    4.1012    1.7488 C.ar      1 <0>        -0.0815
     26 C20        11.7172    4.8504    1.8318 C.ar      1 <0>        -0.0979
     27 C21        12.8220    4.3529    2.5023 C.ar      1 <0>        -0.0662
     28 C22        12.7748    3.1015    3.0933 C.ar      1 <0>        -0.0959
     29 C23        11.6237    2.3452    3.0220 C.ar      1 <0>        -0.0514
     30 Br1        14.4018    5.3865    2.6109 Br        1 <0>        -0.0340
     31 H1         -0.9584    1.9019    0.0179 H         1 <0>         0.1379
     32 H2          1.1509    3.1658    0.0116 H         1 <0>         0.1431
     33 H3          3.3549   -0.4991   -0.0528 H         1 <0>         0.1530
     34 H4          1.2498   -1.7698   -0.0515 H         1 <0>         0.1248
     35 H5         -2.7744    0.7960    0.0047 H         1 <0>         0.2242
     36 H6         -3.1624   -4.2585   -1.0274 H         1 <0>         0.1274
     37 H7         -2.7009   -4.4621    0.6827 H         1 <0>         0.1254
     38 H8         -5.2089   -4.6770    0.1962 H         1 <0>         0.1094
     39 H9         -4.7763   -3.4816    1.4433 H         1 <0>         0.0858
     40 H10        -5.1725   -2.7782   -1.4968 H         1 <0>         0.0889
     41 H11        -6.4624   -2.6578   -0.2762 H         1 <0>         0.1162
     42 H12        -5.1988   -1.0289    1.0025 H         1 <0>         0.1196
     43 H13        -5.1893   -0.4908   -0.6967 H         1 <0>         0.1248
     44 H14         3.6401    2.9778   -0.4939 H         1 <0>         0.4196
     45 H15         6.2893    2.6786   -0.2813 H         1 <0>         0.1109
     46 H16         5.6996    3.4205    1.2254 H         1 <0>         0.1110
     47 H17         6.6023    1.5081    2.5203 H         1 <0>         0.0814
     48 H18         7.1920    0.7663    1.0136 H         1 <0>         0.0814
     49 H19         8.2355    3.3852    1.1839 H         1 <0>         0.4011
     50 H20         9.7015    4.4901    1.2253 H         1 <0>         0.1342
     51 H21        11.7602    5.8270    1.3727 H         1 <0>         0.1419
     52 H22        13.6397    2.7187    3.6145 H         1 <0>         0.1438
     53 H23        11.5866    1.3712    3.4871 H         1 <0>         0.1475
     54 H24        -0.6450   -2.7552   -0.0475 H         1 <0>         0.4594
@<TRIPOS>BOND
     1    1    6 ar
     2    1    2 ar
     3    1   31 1
     4    2    3 ar
     5    2   32 1
     6    3    4 ar
     7    3   16 1
     8    4    5 ar
     9    4   33 1
    10    5    6 ar
    11    5   34 1
    12    6    7 1
    13    7   11 1
    14    7    8 2
    15    8    9 1
    16    8   35 1
    17    9   15 1
    18    9   10 1
    19   10   11 2
    20   10   12 1
    21   11   54 1
    22   12   13 1
    23   12   36 1
    24   12   37 1
    25   13   14 1
    26   13   38 1
    27   13   39 1
    28   14   15 1
    29   14   40 1
    30   14   41 1
    31   15   42 1
    32   15   43 1
    33   16   17 am
    34   16   44 1
    35   17   18 2
    36   17   19 1
    37   19   20 1
    38   19   45 1
    39   19   46 1
    40   20   21 1
    41   20   47 1
    42   20   48 1
    43   21   22 am
    44   21   49 1
    45   22   23 2
    46   22   24 1
    47   24   29 ar
    48   24   25 ar
    49   25   26 ar
    50   25   50 1
    51   26   27 ar
    52   26   51 1
    53   27   28 ar
    54   27   30 1
    55   28   29 ar
    56   28   52 1
    57   29   53 1
@<TRIPOS>MOLECULE
ZINC65074748
   61    64     0     0     0
SMALL
USER_CHARGES

@<TRIPOS>ATOM
      1 C1          2.1130   -2.8026   -2.0905 C.3       1 <0>        -0.1220
      2 C2          1.0718   -2.2736   -1.1381 C.ar      1 <0>        -0.1033
      3 C3          0.3278   -1.1587   -1.4769 C.ar      1 <0>        -0.0573
      4 C4         -0.6272   -0.6736   -0.6034 C.ar      1 <0>        -0.1372
      5 C5         -0.8387   -1.3035    0.6091 C.ar      1 <0>         0.0091
      6 C6         -0.0955   -2.4186    0.9474 C.ar      1 <0>        -0.6786
      7 C7          0.8568   -2.9064    0.0717 C.ar      1 <0>        -0.0200
      8 S1         -0.3646   -3.2211    2.4928 S.o2      1 <0>         2.6906
      9 O1          0.5813   -4.2786    2.5714 O.2       1 <0>        -0.9443
     10 O2         -0.4449   -2.1963    3.4739 O.2       1 <0>        -0.9396
     11 N1         -1.8604   -3.9281    2.4234 N.pl3     1 <0>        -1.0013
     12 C8         -3.0469   -3.2217    2.9255 C.3       1 <0>         0.1078
     13 C9         -4.1074   -3.1916    1.8207 C.3       1 <0>        -0.1326
     14 C10        -4.3836   -4.6205    1.3445 C.3       1 <0>         0.1292
     15 C11        -3.0994   -5.2205    0.7653 C.3       1 <0>        -0.1689
     16 C12        -2.0281   -5.2717    1.8528 C.3       1 <0>         0.1216
     17 C13        -5.4500   -4.5996    0.2861 C.cat     1 <0>         0.5362
     18 N2         -6.4226   -5.4295    0.2450 N.pl3     1 <0>        -0.5945
     19 C14        -6.6232   -6.4931    1.2237 C.3       1 <0>         0.0852
     20 C15        -5.3321   -6.7336    2.0093 C.3       1 <0>         0.0163
     21 N3         -4.8270   -5.4345    2.4857 N.3       1 <0>        -0.6645
     22 N4         -5.3769   -3.6388   -0.6878 N.pl3     1 <0>        -0.6730
     23 C16        -6.3958   -3.5823   -1.7389 C.3       1 <0>         0.1240
     24 C17        -6.0872   -2.4440   -2.6770 C.ar      1 <0>        -0.0768
     25 C18        -6.5987   -1.1848   -2.4267 C.ar      1 <0>        -0.1409
     26 C19        -6.3161   -0.1382   -3.2883 C.ar      1 <0>         0.1422
     27 C20        -5.5206   -0.3535   -4.4004 C.ar      1 <0>        -0.1682
     28 C21        -5.0084   -1.6151   -4.6499 C.ar      1 <0>         0.1417
     29 C22        -5.2881   -2.6589   -3.7840 C.ar      1 <0>        -0.1419
     30 F1         -4.2318   -1.8267   -5.7349 F         1 <0>        -0.1181
     31 F2         -6.8170    1.0925   -3.0438 F         1 <0>        -0.1174
     32 C23        -1.8792   -0.7740    1.5619 C.3       1 <0>        -0.1891
     33 H1          1.6561   -3.5311   -2.7603 H         1 <0>         0.0752
     34 H2          2.5229   -1.9788   -2.6749 H         1 <0>         0.0735
     35 H3          2.9132   -3.2805   -1.5253 H         1 <0>         0.0742
     36 H4          0.4929   -0.6666   -2.4240 H         1 <0>         0.1331
     37 H5         -1.2079    0.1978   -0.8678 H         1 <0>         0.1328
     38 H6          1.4349   -3.7800    0.3345 H         1 <0>         0.1439
     39 H7         -3.4417   -3.7443    3.7968 H         1 <0>         0.0963
     40 H8         -2.7762   -2.2022    3.2000 H         1 <0>         0.1189
     41 H9         -5.0264   -2.7540    2.2104 H         1 <0>         0.1090
     42 H10        -3.7449   -2.5933    0.9848 H         1 <0>         0.0876
     43 H11        -3.3001   -6.2288    0.4029 H         1 <0>         0.0968
     44 H12        -2.7478   -4.6004   -0.0593 H         1 <0>         0.0942
     45 H13        -1.0851   -5.6050    1.4195 H         1 <0>         0.1127
     46 H14        -2.3382   -5.9647    2.6350 H         1 <0>         0.0846
     47 H15        -7.4174   -6.2055    1.9126 H         1 <0>         0.1225
     48 H16        -6.9086   -7.4100    0.7079 H         1 <0>         0.1252
     49 H17        -5.5371   -7.3816    2.8614 H         1 <0>         0.1292
     50 H18        -4.5902   -7.1998    1.3609 H         1 <0>         0.0671
     51 H19        -4.0802   -5.5594    3.1526 H         1 <0>         0.3817
     52 H20        -4.6505   -2.9961   -0.6814 H         1 <0>         0.4385
     53 H21        -6.3977   -4.5203   -2.2940 H         1 <0>         0.1089
     54 H22        -7.3754   -3.4254   -1.2872 H         1 <0>         0.1109
     55 H23        -7.2194   -1.0170   -1.5589 H         1 <0>         0.1501
     56 H24        -5.3000    0.4620   -5.0731 H         1 <0>         0.1604
     57 H25        -4.8850   -3.6423   -3.9761 H         1 <0>         0.1483
     58 H26        -2.8099   -1.3249    1.4264 H         1 <0>         0.0803
     59 H27        -1.5297   -0.8977    2.5869 H         1 <0>         0.1149
     60 H28        -2.0505    0.2837    1.3617 H         1 <0>         0.0891
     61 H29        -7.0634   -5.3473   -0.4786 H         1 <0>         0.4255
@<TRIPOS>BOND
     1    1    2 1
     2    1   33 1
     3    1   34 1
     4    1   35 1
     5    2    7 ar
     6    2    3 ar
     7    3    4 ar
     8    3   36 1
     9    4    5 ar
    10    4   37 1
    11    5    6 ar
    12    5   32 1
    13    6    7 ar
    14    6    8 1
    15    7   38 1
    16    8    9 2
    17    8   10 2
    18    8   11 1
    19   11   16 1
    20   11   12 1
    21   12   13 1
    22   12   39 1
    23   12   40 1
    24   13   14 1
    25   13   41 1
    26   13   42 1
    27   14   21 1
    28   14   15 1
    29   14   17 1
    30   15   16 1
    31   15   43 1
    32   15   44 1
    33   16   45 1
    34   16   46 1
    35   17   18 2
    36   17   22 1
    37   18   19 1
    38   18   61 1
    39   19   20 1
    40   19   47 1
    41   19   48 1
    42   20   21 1
    43   20   49 1
    44   20   50 1
    45   21   51 1
    46   22   23 1
    47   22   52 1
    48   23   24 1
    49   23   53 1
    50   23   54 1
    51   24   29 ar
    52   24   25 ar
    53   25   26 ar
    54   25   55 1
    55   26   27 ar
    56   26   31 1
    57   27   28 ar
    58   27   56 1
    59   28   29 ar
    60   28   30 1
    61   29   57 1
    62   32   58 1
    63   32   59 1
    64   32   60 1
@<TRIPOS>MOLECULE
ZINC09632962
   46    48     0     0     0
SMALL
USER_CHARGES
(4-bromo-2-fluoro-phenyl)carbamoylmethyl 3-(2-furylcarbonylamino)-4-methyl-benzoate
@<TRIPOS>ATOM
      1 C1        -10.5436   -1.8796   -0.7705 C.3       1 <0>        -0.1198
      2 C2         -9.3668   -0.9441   -0.6652 C.ar      1 <0>        -0.0663
      3 C3         -8.0870   -1.4564   -0.5589 C.ar      1 <0>        -0.1148
      4 C4         -7.0040   -0.6065   -0.4674 C.ar      1 <0>        -0.0642
      5 C5         -7.1994    0.7764   -0.4708 C.ar      1 <0>        -0.1158
      6 C6         -8.4908    1.2932   -0.5784 C.ar      1 <0>        -0.0503
      7 C7         -9.5717    0.4304   -0.6756 C.ar      1 <0>         0.1280
      8 N1        -10.8684    0.9433   -0.7838 N.am      1 <0>        -0.6621
      9 C8        -11.0868    2.0847   -1.4664 C.2       1 <0>         0.6063
     10 O1        -10.1471    2.7150   -1.9147 O.2       1 <0>        -0.4945
     11 C9        -12.4565    2.5672   -1.6688 C.2       1 <0>        -0.0905
     12 C10       -12.8170    3.7019   -2.3378 C.2       1 <0>        -0.1056
     13 C11       -14.2179    3.7724   -2.2871 C.2       1 <0>        -0.2250
     14 C12       -14.6458    2.6914   -1.5982 C.2       1 <0>         0.0040
     15 O2        -13.5819    1.9649   -1.2320 O.3       1 <0>        -0.1661
     16 C13        -6.0421    1.6889   -0.3667 C.2       1 <0>         0.5152
     17 O3         -6.2141    2.8913   -0.3748 O.2       1 <0>        -0.4948
     18 O4         -4.7962    1.1874   -0.2628 O.3       1 <0>        -0.3277
     19 C14        -3.7072    2.1426   -0.1644 C.3       1 <0>         0.0515
     20 C15        -2.3985    1.4032   -0.0564 C.2       1 <0>         0.5207
     21 O5         -2.3850    0.1903   -0.0619 O.2       1 <0>        -0.4869
     22 N2         -1.2431    2.0895    0.0462 N.am      1 <0>        -0.6647
     23 C16        -0.0196    1.4077    0.0291 C.ar      1 <0>         0.1370
     24 C17         0.0763    0.1664   -0.5847 C.ar      1 <0>        -0.1005
     25 C18         1.2853   -0.5015   -0.6053 C.ar      1 <0>        -0.0740
     26 C19         2.4013    0.0651   -0.0154 C.ar      1 <0>        -0.0842
     27 C20         2.3103    1.3018    0.5980 C.ar      1 <0>        -0.1025
     28 C21         1.1027    1.9755    0.6219 C.ar      1 <0>         0.0760
     29 F1          1.0137    3.1836    1.2200 F         1 <0>        -0.1292
     30 Br1         4.0541   -0.8532   -0.0469 Br        1 <0>        -0.0315
     31 H1        -10.7399   -2.0999   -1.8198 H         1 <0>         0.0811
     32 H2        -10.3204   -2.8055   -0.2404 H         1 <0>         0.0792
     33 H3        -11.4218   -1.4099   -0.3274 H         1 <0>         0.0651
     34 H4         -7.9342   -2.5255   -0.5517 H         1 <0>         0.1405
     35 H5         -6.0055   -1.0106   -0.3891 H         1 <0>         0.1453
     36 H6         -8.6479    2.3617   -0.5857 H         1 <0>         0.1573
     37 H7        -11.6105    0.4776   -0.3675 H         1 <0>         0.4175
     38 H8        -12.1528    4.4084   -2.8133 H         1 <0>         0.1635
     39 H9        -14.8373    4.5455   -2.7172 H         1 <0>         0.1608
     40 H10       -15.6763    2.4508   -1.3823 H         1 <0>         0.2144
     41 H11        -3.8475    2.7638    0.7203 H         1 <0>         0.1107
     42 H12        -3.6958    2.7735   -1.0532 H         1 <0>         0.1124
     43 H13        -1.2589    3.0555    0.1320 H         1 <0>         0.4204
     44 H14        -0.7937   -0.2768   -1.0462 H         1 <0>         0.1655
     45 H15         1.3597   -1.4673   -1.0829 H         1 <0>         0.1465
     46 H16         3.1830    1.7418    1.0577 H         1 <0>         0.1519
@<TRIPOS>BOND
     1    1    2 1
     2    1   31 1
     3    1   32 1
     4    1   33 1
     5    2    7 ar
     6    2    3 ar
     7    3    4 ar
     8    3   34 1
     9    4    5 ar
    10    4   35 1
    11    5    6 ar
    12    5   16 1
    13    6    7 ar
    14    6   36 1
    15    7    8 1
    16    8    9 am
    17    8   37 1
    18    9   10 2
    19    9   11 1
    20   11   15 1
    21   11   12 2
    22   12   13 1
    23   12   38 1
    24   13   14 2
    25   13   39 1
    26   14   15 1
    27   14   40 1
    28   16   17 2
    29   16   18 1
    30   18   19 1
    31   19   20 1
    32   19   41 1
    33   19   42 1
    34   20   21 2
    35   20   22 am
    36   22   23 1
    37   22   43 1
    38   23   28 ar
    39   23   24 ar
    40   24   25 ar
    41   24   44 1
    42   25   26 ar
    43   25   45 1
    44   26   27 ar
    45   26   30 1
    46   27   28 ar
    47   27   46 1
    48   28   29 1
@<TRIPOS>MOLECULE
ZINC21096623
   61    64     0     0     0
SMALL
USER_CHARGES
3-[[[4-(4-fluorophenyl)piperazin-1-yl]-[(3-methoxyphenyl)methylamino]methylene]amino]benzoic acid
@<TRIPOS>ATOM
      1 C1          1.4995    5.4489   -0.3427 C.3       1 <0>         0.0210
      2 O1          0.2305    4.7944   -0.4001 O.3       1 <0>        -0.3139
      3 C2          0.2042    3.4711   -0.0918 C.ar      1 <0>         0.1312
      4 C3          1.3760    2.8159    0.2588 C.ar      1 <0>        -0.1883
      5 C4          1.3468    1.4708    0.5713 C.ar      1 <0>        -0.0772
      6 C5          0.1511    0.7770    0.5344 C.ar      1 <0>        -0.1330
      7 C6         -1.0168    1.4262    0.1798 C.ar      1 <0>        -0.0859
      8 C7         -0.9939    2.7731   -0.1276 C.ar      1 <0>        -0.1285
      9 C8         -2.3169    0.6656    0.1342 C.3       1 <0>         0.1427
     10 N1         -2.9673    0.7311    1.4453 N.pl3     1 <0>        -0.7025
     11 C9         -4.1729    0.1067    1.6451 C.cat     1 <0>         0.7283
     12 N2         -4.7924   -0.4627    0.6372 N.pl3     1 <0>        -0.5895
     13 C10        -5.9115   -1.2209    0.8609 C.ar      1 <0>         0.0416
     14 C11        -5.8554   -2.3123    1.7313 C.ar      1 <0>        -0.1067
     15 C12        -6.9820   -3.0774    1.9579 C.ar      1 <0>        -0.1199
     16 C13        -8.1713   -2.7704    1.3270 C.ar      1 <0>        -0.0482
     17 C14        -8.2422   -1.6818    0.4546 C.ar      1 <0>        -0.0888
     18 C15        -7.1098   -0.9018    0.2252 C.ar      1 <0>        -0.0745
     19 C16        -9.5158   -1.3546   -0.2193 C.2       1 <0>         0.4825
     20 O2         -9.5758   -0.4076   -0.9777 O.co2     1 <0>        -0.6218
     21 O3        -10.6103   -2.1064    0.0074 O.co2     1 <0>        -0.7337
     22 N3         -4.7311    0.0775    2.8985 N.pl3     1 <0>        -0.6095
     23 C17        -3.8942   -0.1101    4.0933 C.3       1 <0>         0.1180
     24 C18        -4.2322    1.0027    5.0981 C.3       1 <0>         0.0375
     25 N4         -5.6797    1.0060    5.3486 N.pl3     1 <0>        -0.4813
     26 C19        -6.4313    1.3206    4.1262 C.3       1 <0>         0.0330
     27 C20        -6.1827    0.2269    3.0821 C.3       1 <0>         0.1155
     28 C21        -6.0077    1.8910    6.3802 C.ar      1 <0>         0.0933
     29 C22        -6.9336    2.9026    6.1605 C.ar      1 <0>        -0.1379
     30 C23        -7.2596    3.7727    7.1825 C.ar      1 <0>        -0.1242
     31 C24        -6.6563    3.6436    8.4220 C.ar      1 <0>         0.0802
     32 C25        -5.7290    2.6391    8.6417 C.ar      1 <0>        -0.1277
     33 C26        -5.4038    1.7634    7.6242 C.ar      1 <0>        -0.1076
     34 F1         -6.9732    4.4987    9.4188 F         1 <0>        -0.1381
     35 H1          1.3783    6.5082   -0.6133 H         1 <0>         0.1078
     36 H2          2.1927    4.9673   -1.0481 H         1 <0>         0.0604
     37 H3          1.9043    5.3750    0.6774 H         1 <0>         0.0595
     38 H4          2.3102    3.3571    0.2871 H         1 <0>         0.1346
     39 H5          2.2585    0.9604    0.8443 H         1 <0>         0.1328
     40 H6          0.1304   -0.2748    0.7787 H         1 <0>         0.1288
     41 H7         -1.9073    3.2809   -0.3999 H         1 <0>         0.1355
     42 H8         -2.9763    1.1117   -0.6249 H         1 <0>         0.0966
     43 H9         -2.1183   -0.3849   -0.1245 H         1 <0>         0.1001
     44 H10        -2.4893    1.2808    2.2696 H         1 <0>         0.4583
     45 H11        -4.9284   -2.5583    2.2278 H         1 <0>         0.1206
     46 H12        -6.9330   -3.9197    2.6320 H         1 <0>         0.1338
     47 H13        -9.0489   -3.3732    1.5088 H         1 <0>         0.1453
     48 H14        -7.1599   -0.0565   -0.4452 H         1 <0>         0.1398
     49 H15        -4.1032   -1.0950    4.5364 H         1 <0>         0.1032
     50 H16        -2.8328   -0.0533    3.8101 H         1 <0>         0.0956
     51 H17        -3.6954    0.8209    6.0408 H         1 <0>         0.1074
     52 H18        -3.9275    1.9753    4.6843 H         1 <0>         0.0555
     53 H19        -7.5053    1.3700    4.3587 H         1 <0>         0.1130
     54 H20        -6.0970    2.2906    3.7296 H         1 <0>         0.0580
     55 H21        -6.6461    0.5093    2.1253 H         1 <0>         0.1064
     56 H22        -6.6085   -0.7263    3.4285 H         1 <0>         0.1040
     57 H23        -7.4014    3.0062    5.1926 H         1 <0>         0.1379
     58 H24        -7.9829    4.5567    7.0134 H         1 <0>         0.1392
     59 H25        -5.2598    2.5400    9.6094 H         1 <0>         0.1399
     60 H26        -4.6807    0.9799    7.7961 H         1 <0>         0.1361
     61 H27        -4.4130   -0.3310   -0.3869 H         1 <0>         0.4635
@<TRIPOS>BOND
     1    1    2 1
     2    1   35 1
     3    1   36 1
     4    1   37 1
     5    2    3 1
     6    3    8 ar
     7    3    4 ar
     8    4    5 ar
     9    4   38 1
    10    5    6 ar
    11    5   39 1
    12    6    7 ar
    13    6   40 1
    14    7    8 ar
    15    7    9 1
    16    8   41 1
    17    9   10 1
    18    9   42 1
    19    9   43 1
    20   10   11 2
    21   10   44 1
    22   11   12 1
    23   11   22 1
    24   12   13 1
    25   12   61 1
    26   13   18 ar
    27   13   14 ar
    28   14   15 ar
    29   14   45 1
    30   15   16 ar
    31   15   46 1
    32   16   17 ar
    33   16   47 1
    34   17   18 ar
    35   17   19 1
    36   18   48 1
    37   19   20 2
    38   19   21 1
    39   22   27 1
    40   22   23 1
    41   23   24 1
    42   23   49 1
    43   23   50 1
    44   24   25 1
    45   24   51 1
    46   24   52 1
    47   25   26 1
    48   25   28 1
    49   26   27 1
    50   26   53 1
    51   26   54 1
    52   27   55 1
    53   27   56 1
    54   28   33 ar
    55   28   29 ar
    56   29   30 ar
    57   29   57 1
    58   30   31 ar
    59   30   58 1
    60   31   32 ar
    61   31   34 1
    62   32   33 ar
    63   32   59 1
    64   33   60 1
@<TRIPOS>MOLECULE
ZINC35226237
   58    61     0     0     0
SMALL
USER_CHARGES

@<TRIPOS>ATOM
      1 C1         -0.0365    1.5163    0.0412 C.3       1 <0>        -0.1219
      2 C2         -0.0123    0.0096    0.0227 C.ar      1 <0>        -0.0603
      3 C3         -0.0107   -0.6657   -1.1839 C.ar      1 <0>        -0.1055
      4 C4          0.0115   -2.0466   -1.2040 C.ar      1 <0>        -0.0885
      5 C5          0.0323   -2.7565   -0.0112 C.ar      1 <0>         0.0861
      6 C6          0.0307   -2.0758    1.1986 C.ar      1 <0>        -0.0927
      7 C7          0.0141   -0.6947    1.2123 C.ar      1 <0>        -0.1054
      8 N1          0.0544   -4.1587   -0.0284 N.pl3     1 <0>        -0.4055
      9 C8         -0.9201   -5.0075    0.4255 C.2       1 <0>         0.1771
     10 N2         -0.4997   -6.2240    0.2220 N.2       1 <0>        -0.2664
     11 N3          0.6632   -6.2049   -0.3245 N.2       1 <0>        -0.2870
     12 C9          1.0511   -4.9639   -0.5075 C.2       1 <0>         0.1703
     13 S1          2.5693   -4.4359   -1.2293 S.3       1 <0>         0.0149
     14 C10         3.4206   -5.9836   -1.6422 C.3       1 <0>        -0.0604
     15 C11         4.7518   -5.6712   -2.2757 C.ar      1 <0>        -0.0842
     16 C12         4.8458   -5.5175   -3.6463 C.ar      1 <0>        -0.0971
     17 C13         6.0669   -5.2308   -4.2275 C.ar      1 <0>        -0.1198
     18 C14         7.1938   -5.0975   -3.4380 C.ar      1 <0>        -0.1079
     19 C15         7.0995   -5.2503   -2.0674 C.ar      1 <0>        -0.1196
     20 C16         5.8777   -5.5327   -1.4858 C.ar      1 <0>        -0.0968
     21 C17        -2.2343   -4.6086    1.0459 C.3       1 <0>         0.2581
     22 H1         -2.4246   -3.5539    0.8471 H         1 <0>         0.1090
     23 C18        -2.1760   -4.8404    2.5571 C.3       1 <0>        -0.1594
     24 N4         -3.3118   -5.4164    0.4691 N.am      1 <0>        -0.7284
     25 C19        -4.5750   -4.9466    0.4595 C.2       1 <0>         0.7103
     26 O1         -4.8203   -3.8525    0.9296 O.2       1 <0>        -0.5678
     27 N5         -5.5663   -5.6898   -0.0711 N.am      1 <0>        -0.6833
     28 C20        -6.8915   -5.2457    0.0051 C.ar      1 <0>         0.1629
     29 C21        -7.9228   -6.1621    0.1738 C.ar      1 <0>        -0.1151
     30 C22        -9.2333   -5.7291    0.2492 C.ar      1 <0>        -0.0986
     31 C23        -9.5269   -4.3837    0.1576 C.ar      1 <0>        -0.0857
     32 C24        -8.4981   -3.4548   -0.0115 C.ar      1 <0>        -0.0095
     33 C25        -7.1747   -3.8920   -0.0819 C.ar      1 <0>        -0.0735
     34 C26        -8.7996   -2.0582   -0.1070 C.1       1 <0>         0.2539
     35 N6         -9.0387   -0.9502   -0.1827 N.1       1 <0>        -0.4113
     36 H2          0.9851    1.8963    0.0328 H         1 <0>         0.0785
     37 H3         -0.5674    1.8820   -0.8378 H         1 <0>         0.0725
     38 H4         -0.5448    1.8605    0.9419 H         1 <0>         0.0729
     39 H5         -0.0272   -0.1129   -2.1116 H         1 <0>         0.1372
     40 H6          0.0124   -2.5736   -2.1467 H         1 <0>         0.1318
     41 H7          0.0464   -2.6255    2.1281 H         1 <0>         0.1317
     42 H8          0.0176   -0.1645    2.1532 H         1 <0>         0.1378
     43 H9          3.5781   -6.5652   -0.7339 H         1 <0>         0.1062
     44 H10         2.8118   -6.5580   -2.3404 H         1 <0>         0.1060
     45 H11         3.9654   -5.6216   -4.2631 H         1 <0>         0.1264
     46 H12         6.1405   -5.1115   -5.2983 H         1 <0>         0.1268
     47 H13         8.1479   -4.8743   -3.8921 H         1 <0>         0.1255
     48 H14         7.9800   -5.1464   -1.4506 H         1 <0>         0.1269
     49 H15         5.8033   -5.6484   -0.4146 H         1 <0>         0.1266
     50 H16        -1.9857   -5.8951    2.7558 H         1 <0>         0.0722
     51 H17        -1.3743   -4.2394    2.9862 H         1 <0>         0.0682
     52 H18        -3.1265   -4.5518    3.0058 H         1 <0>         0.0808
     53 H19        -3.1161   -6.2893    0.0941 H         1 <0>         0.4085
     54 H20        -5.3614   -6.5323   -0.5058 H         1 <0>         0.4124
     55 H21        -7.6995   -7.2163    0.2458 H         1 <0>         0.1349
     56 H22       -10.0303   -6.4462    0.3800 H         1 <0>         0.1398
     57 H23       -10.5521   -4.0494    0.2162 H         1 <0>         0.1351
     58 H24        -6.3742   -3.1780   -0.2086 H         1 <0>         0.1504
@<TRIPOS>BOND
     1    1    2 1
     2    1   36 1
     3    1   37 1
     4    1   38 1
     5    2    7 ar
     6    2    3 ar
     7    3    4 ar
     8    3   39 1
     9    4    5 ar
    10    4   40 1
    11    5    6 ar
    12    5    8 1
    13    6    7 ar
    14    6   41 1
    15    7   42 1
    16    8   12 1
    17    8    9 1
    18    9   10 2
    19    9   21 1
    20   10   11 1
    21   11   12 2
    22   12   13 1
    23   13   14 1
    24   14   15 1
    25   14   43 1
    26   14   44 1
    27   15   20 ar
    28   15   16 ar
    29   16   17 ar
    30   16   45 1
    31   17   18 ar
    32   17   46 1
    33   18   19 ar
    34   18   47 1
    35   19   20 ar
    36   19   48 1
    37   20   49 1
    38   21   22 1
    39   21   23 1
    40   21   24 1
    41   23   50 1
    42   23   51 1
    43   23   52 1
    44   24   25 am
    45   24   53 1
    46   25   26 2
    47   25   27 am
    48   27   28 1
    49   27   54 1
    50   28   33 ar
    51   28   29 ar
    52   29   30 ar
    53   29   55 1
    54   30   31 ar
    55   30   56 1
    56   31   32 ar
    57   31   57 1
    58   32   33 ar
    59   32   34 1
    60   33   58 1
    61   34   35 3
@<TRIPOS>MOLECULE
ZINC43962371
   62    64     0     0     0
SMALL
USER_CHARGES

@<TRIPOS>ATOM
      1 C1         -0.1971    2.5546   -1.4412 C.3       1 <0>        -0.1479
      2 C2          0.1509    1.0976   -1.7522 C.3       1 <0>        -0.0946
      3 C3          1.4081    0.6970   -0.9777 C.3       1 <0>        -0.1497
      4 C4         -1.0130    0.1954   -1.3371 C.3       1 <0>         0.0576
      5 O1         -0.7376   -1.1498   -1.7329 O.3       1 <0>        -0.3054
      6 C5         -1.6783   -2.0849   -1.4367 C.ar      1 <0>         0.1892
      7 C6         -2.8449   -1.7143   -0.7838 C.ar      1 <0>        -0.2312
      8 C7         -3.7997   -2.6667   -0.4842 C.ar      1 <0>         0.0241
      9 C8         -3.5933   -3.9883   -0.8342 C.ar      1 <0>        -0.7179
     10 C9         -2.4312   -4.3602   -1.4846 C.ar      1 <0>         0.0172
     11 C10        -1.4760   -3.4106   -1.7919 C.ar      1 <0>        -0.1725
     12 S1         -4.8128   -5.2006   -0.4502 S.o2      1 <0>         2.6979
     13 O2         -4.1397   -6.4509   -0.3960 O.2       1 <0>        -0.9547
     14 O3         -5.5620   -4.6906    0.6443 O.2       1 <0>        -0.9584
     15 N1         -5.8500   -5.2771   -1.7389 N.pl3     1 <0>        -1.1168
     16 C11        -5.3676   -5.7450   -3.0407 C.3       1 <0>         0.1195
     17 C12        -6.5617   -6.0756   -3.9383 C.3       1 <0>        -0.0924
     18 C13        -7.3355   -7.2546   -3.3438 C.3       1 <0>        -0.1343
     19 C14        -8.5496   -7.5604   -4.2265 C.3       1 <0>         0.1269
     20 N2         -8.0900   -7.7742   -5.6055 N.am      1 <0>        -0.6238
     21 C15        -7.2613   -6.7413   -6.2420 C.3       1 <0>         0.1105
     22 C16        -6.0615   -6.4446   -5.3368 C.3       1 <0>        -0.1313
     23 C17        -8.4218   -8.8966   -6.2737 C.2       1 <0>         0.7076
     24 O4         -9.0263   -9.7858   -5.7061 O.2       1 <0>        -0.5678
     25 N3         -8.0835   -9.0333   -7.5712 N.am      1 <0>        -0.6861
     26 C18        -8.5233  -10.1483   -8.2958 C.ar      1 <0>         0.1554
     27 C19        -9.7593  -10.7157   -8.0163 C.ar      1 <0>        -0.0917
     28 C20       -10.1914  -11.8149   -8.7323 C.ar      1 <0>        -0.1315
     29 C21        -9.3928  -12.3511   -9.7284 C.ar      1 <0>         0.0808
     30 C22        -8.1596  -11.7870  -10.0084 C.ar      1 <0>        -0.1317
     31 C23        -7.7263  -10.6842   -9.2985 C.ar      1 <0>        -0.1200
     32 F1         -9.8172  -13.4263  -10.4276 F         1 <0>        -0.1396
     33 H1          0.6321    3.1973   -1.7370 H         1 <0>         0.0677
     34 H2         -1.0927    2.8400   -1.9931 H         1 <0>         0.0588
     35 H3         -0.3786    2.6646   -0.3721 H         1 <0>         0.0594
     36 H4          0.3324    0.9876   -2.8214 H         1 <0>         0.0830
     37 H5          1.2266    0.8070    0.0915 H         1 <0>         0.0553
     38 H6          1.6561   -0.3411   -1.1992 H         1 <0>         0.0622
     39 H7          2.2373    1.3397   -1.2734 H         1 <0>         0.0599
     40 H8         -1.1373    0.2375   -0.2550 H         1 <0>         0.0682
     41 H9         -1.9278    0.5366   -1.8215 H         1 <0>         0.0673
     42 H10        -3.0063   -0.6823   -0.5095 H         1 <0>         0.1381
     43 H11        -4.7081   -2.3787    0.0241 H         1 <0>         0.1431
     44 H12        -2.2721   -5.3932   -1.7567 H         1 <0>         0.1470
     45 H13        -0.5705   -3.7009   -2.3039 H         1 <0>         0.1420
     46 H14        -6.7769   -5.0120   -1.6319 H         1 <0>         0.4194
     47 H15        -4.7672   -4.9643   -3.5077 H         1 <0>         0.0687
     48 H16        -4.7584   -6.6383   -2.9028 H         1 <0>         0.0832
     49 H17        -7.2175   -5.2075   -4.0046 H         1 <0>         0.0844
     50 H18        -6.6876   -8.1300   -3.3003 H         1 <0>         0.0745
     51 H19        -7.6713   -6.9996   -2.3387 H         1 <0>         0.0818
     52 H20        -9.0478   -8.4596   -3.8638 H         1 <0>         0.0986
     53 H21        -9.2428   -6.7197   -4.1985 H         1 <0>         0.0702
     54 H22        -6.9093   -7.1000   -7.2093 H         1 <0>         0.0777
     55 H23        -7.8494   -5.8338   -6.3784 H         1 <0>         0.0765
     56 H24        -5.4907   -5.6131   -5.7502 H         1 <0>         0.0835
     57 H25        -5.4257   -7.3277   -5.2745 H         1 <0>         0.0752
     58 H26        -7.5355   -8.3595   -8.0031 H         1 <0>         0.4067
     59 H27       -10.3823  -10.2980   -7.2392 H         1 <0>         0.1456
     60 H28       -11.1526  -12.2567   -8.5149 H         1 <0>         0.1394
     61 H29        -7.5379  -12.2071  -10.7852 H         1 <0>         0.1401
     62 H30        -6.7664  -10.2418   -9.5202 H         1 <0>         0.1351
@<TRIPOS>BOND
     1    1    2 1
     2    1   33 1
     3    1   34 1
     4    1   35 1
     5    2    3 1
     6    2    4 1
     7    2   36 1
     8    3   37 1
     9    3   38 1
    10    3   39 1
    11    4    5 1
    12    4   40 1
    13    4   41 1
    14    5    6 1
    15    6   11 ar
    16    6    7 ar
    17    7    8 ar
    18    7   42 1
    19    8    9 ar
    20    8   43 1
    21    9   10 ar
    22    9   12 1
    23   10   11 ar
    24   10   44 1
    25   11   45 1
    26   12   13 2
    27   12   14 2
    28   12   15 1
    29   15   16 1
    30   15   46 1
    31   16   17 1
    32   16   47 1
    33   16   48 1
    34   17   22 1
    35   17   18 1
    36   17   49 1
    37   18   19 1
    38   18   50 1
    39   18   51 1
    40   19   20 1
    41   19   52 1
    42   19   53 1
    43   20   21 1
    44   20   23 am
    45   21   22 1
    46   21   54 1
    47   21   55 1
    48   22   56 1
    49   22   57 1
    50   23   24 2
    51   23   25 am
    52   25   26 1
    53   25   58 1
    54   26   31 ar
    55   26   27 ar
    56   27   28 ar
    57   27   59 1
    58   28   29 ar
    59   28   60 1
    60   29   30 ar
    61   29   32 1
    62   30   31 ar
    63   30   61 1
    64   31   62 1
@<TRIPOS>MOLECULE
ZINC64794457
   50    54     0     0     0
SMALL
USER_CHARGES

@<TRIPOS>ATOM
      1 C1         -0.0173    1.4248    0.0099 C.3       1 <0>         0.0263
      2 O1          0.0021   -0.0041    0.0020 O.3       1 <0>        -0.3160
      3 C2          0.6058   -0.6071   -1.0557 C.ar      1 <0>         0.1280
      4 C3          1.1731    0.1608   -2.0626 C.ar      1 <0>        -0.1979
      5 C4          1.7865   -0.4545   -3.1363 C.ar      1 <0>        -0.0785
      6 C5          1.8356   -1.8347   -3.2084 C.ar      1 <0>        -0.1344
      7 C6          1.2707   -2.6020   -2.2067 C.ar      1 <0>        -0.0432
      8 C7          0.6609   -1.9913   -1.1277 C.ar      1 <0>        -0.1296
      9 C8          1.3255   -4.1057   -2.2887 C.3       1 <0>        -0.0599
     10 S1          2.8345   -4.7009   -1.4767 S.3       1 <0>         0.0156
     11 C9          2.7522   -6.4520   -1.6551 C.2       1 <0>         0.1653
     12 N1          1.7998   -7.1296   -2.2534 N.2       1 <0>        -0.2823
     13 N2          2.0521   -8.3885   -2.2025 N.2       1 <0>        -0.2902
     14 C10         3.1856   -8.5941   -1.5663 C.2       1 <0>         0.3074
     15 N3          3.6718   -7.3577   -1.2011 N.pl3     1 <0>        -0.4615
     16 C11         4.9125   -7.0726   -0.4761 C.3       1 <0>         0.1921
     17 C12         4.6386   -7.0675    1.0058 C.2       1 <0>        -0.0621
     18 C13         4.7203   -8.1316    1.8245 C.2       1 <0>        -0.1705
     19 C14         4.3826   -7.6783    3.1204 C.2       1 <0>        -0.2178
     20 C15         4.1148   -6.3642    3.0161 C.2       1 <0>        -0.0172
     21 O2          4.2771   -5.9985    1.7340 O.3       1 <0>        -0.1616
     22 C16         3.8155   -9.8946   -1.3006 C.2       1 <0>        -0.2242
     23 C17         3.3737  -11.1333   -1.6533 C.2       1 <0>         0.2727
     24 C18         4.1695  -12.2919   -1.2801 C.ar      1 <0>        -0.1705
     25 C19         3.9152  -13.6625   -1.5335 C.ar      1 <0>        -0.0143
     26 C20         4.8138  -14.6012   -1.0830 C.ar      1 <0>        -0.1811
     27 C21         5.9503  -14.2096   -0.3914 C.ar      1 <0>         0.1509
     28 N4          6.1834  -12.9324   -0.1571 N.ar      1 <0>        -0.4490
     29 C22         5.3554  -11.9980   -0.5678 C.ar      1 <0>         0.1173
     30 S2          5.3441  -10.2265   -0.4466 S.3       1 <0>         0.1116
     31 N5          2.1752  -11.2888   -2.3616 N.pl3     1 <0>        -0.8384
     32 H1          1.0053    1.8021    0.0021 H         1 <0>         0.0568
     33 H2         -0.5445    1.7859   -0.8732 H         1 <0>         0.0567
     34 H3         -0.5275    1.7763    0.9067 H         1 <0>         0.1020
     35 H4          1.1347    1.2387   -2.0069 H         1 <0>         0.1308
     36 H5          2.2279    0.1427   -3.9204 H         1 <0>         0.1301
     37 H6          2.3157   -2.3139   -4.0487 H         1 <0>         0.1295
     38 H7          0.2237   -2.5911   -0.3432 H         1 <0>         0.1350
     39 H8          0.4535   -4.5288   -1.7900 H         1 <0>         0.1080
     40 H9          1.3304   -4.4127   -3.3346 H         1 <0>         0.1095
     41 H10         5.6522   -7.8394   -0.7062 H         1 <0>         0.1268
     42 H11         5.2941   -6.0974   -0.7784 H         1 <0>         0.1214
     43 H12         4.9912   -9.1392    1.5454 H         1 <0>         0.1615
     44 H13         4.3463   -8.2730    4.0212 H         1 <0>         0.1531
     45 H14         3.8228   -5.7128    3.8266 H         1 <0>         0.2077
     46 H15         3.0292  -13.9655   -2.0716 H         1 <0>         0.1395
     47 H16         4.6331  -15.6497   -1.2688 H         1 <0>         0.1483
     48 H17         6.6490  -14.9553   -0.0420 H         1 <0>         0.1752
     49 H18         1.6514  -10.5096   -2.6055 H         1 <0>         0.4223
     50 H19         1.8690  -12.1755   -2.6082 H         1 <0>         0.3988
@<TRIPOS>BOND
     1    1    2 1
     2    1   32 1
     3    1   33 1
     4    1   34 1
     5    2    3 1
     6    3    8 ar
     7    3    4 ar
     8    4    5 ar
     9    4   35 1
    10    5    6 ar
    11    5   36 1
    12    6    7 ar
    13    6   37 1
    14    7    8 ar
    15    7    9 1
    16    8   38 1
    17    9   10 1
    18    9   39 1
    19    9   40 1
    20   10   11 1
    21   11   15 1
    22   11   12 2
    23   12   13 1
    24   13   14 2
    25   14   15 1
    26   14   22 1
    27   15   16 1
    28   16   17 1
    29   16   41 1
    30   16   42 1
    31   17   21 1
    32   17   18 2
    33   18   19 1
    34   18   43 1
    35   19   20 2
    36   19   44 1
    37   20   21 1
    38   20   45 1
    39   22   30 1
    40   22   23 2
    41   23   24 1
    42   23   31 1
    43   24   29 ar
    44   24   25 ar
    45   25   26 ar
    46   25   46 1
    47   26   27 ar
    48   26   47 1
    49   27   28 ar
    50   27   48 1
    51   28   29 ar
    52   29   30 1
    53   31   49 1
    54   31   50 1
@<TRIPOS>MOLECULE
ZINC14745803
   74    76     0     0     0
SMALL
USER_CHARGES
N-tert-butyl-3-(4-methyl1,4-diazepane-1-carbonyl)-5-[[(E)-2-methyl-3-phenyl-prop-2-enyl]amino]benzenesulfonamide
@<TRIPOS>ATOM
      1 C1         -0.2308    1.7372    9.2481 C.3       1 <0>        -0.1214
      2 C2         -0.9918    2.3638    8.1082 C.2       1 <0>        -0.1485
      3 C3         -1.2417    3.6657    8.1145 C.2       1 <0>        -0.0791
      4 C4         -0.6341    4.5300    9.1482 C.ar      1 <0>        -0.0710
      5 C5         -1.3353    5.6307    9.6420 C.ar      1 <0>        -0.1035
      6 C6         -0.7651    6.4296   10.6117 C.ar      1 <0>        -0.1204
      7 C7          0.5042    6.1488   11.0851 C.ar      1 <0>        -0.1109
      8 C8          1.2071    5.0626   10.5952 C.ar      1 <0>        -0.1226
      9 C9          0.6455    4.2520    9.6302 C.ar      1 <0>        -0.1098
     10 C10        -1.4686    1.5105    6.9613 C.3       1 <0>         0.1595
     11 N1         -0.3916    1.3672    5.9785 N.pl3     1 <0>        -0.7304
     12 C11        -0.5986    0.6141    4.8201 C.ar      1 <0>         0.2124
     13 C12        -1.8235    0.0021    4.6005 C.ar      1 <0>        -0.0906
     14 C13        -2.0249   -0.7486    3.4426 C.ar      1 <0>        -0.1044
     15 C14        -0.9920   -0.8790    2.5123 C.ar      1 <0>        -0.0975
     16 C15         0.2231   -0.2662    2.7400 C.ar      1 <0>        -0.6260
     17 C16         0.4248    0.4737    3.8903 C.ar      1 <0>        -0.0684
     18 S1          1.5246   -0.4332    1.5641 S.o2      1 <0>         2.6935
     19 O1          1.3947   -1.7292    0.9959 O.2       1 <0>        -0.9674
     20 O2          2.7139   -0.0005    2.2104 O.2       1 <0>        -0.9388
     21 N2          1.2267    0.6493    0.3469 N.pl3     1 <0>        -1.1065
     22 C17         1.3185    2.0880    0.6074 C.3       1 <0>         0.1747
     23 C18         2.7746    2.4632    0.8902 C.3       1 <0>        -0.1844
     24 C19         0.8212    2.8606   -0.6160 C.3       1 <0>        -0.1512
     25 C20         0.4556    2.4428    1.8200 C.3       1 <0>        -0.1937
     26 C21        -3.3281   -1.4039    3.2008 C.2       1 <0>         0.5609
     27 O3         -4.3588   -0.8416    3.5155 O.2       1 <0>        -0.5002
     28 N3         -3.3732   -2.6246    2.6313 N.am      1 <0>        -0.6207
     29 C22        -4.6729   -3.3187    2.5418 C.3       1 <0>         0.0974
     30 C23        -4.8417   -4.0061    1.1722 C.3       1 <0>        -0.1601
     31 C24        -4.2925   -3.1142    0.0807 C.3       1 <0>         0.0000
     32 C25        -1.9366   -2.8083    0.6546 C.3       1 <0>        -0.0634
     33 C26        -2.1432   -3.2080    2.1355 C.3       1 <0>         0.0726
     34 C27        -2.5531   -3.3216   -1.5824 C.3       1 <0>        -0.0519
     35 H1          0.8371    1.7662    9.0315 H         1 <0>         0.0705
     36 H2         -0.4305    2.2903   10.1658 H         1 <0>         0.0760
     37 H3         -0.5485    0.7019    9.3714 H         1 <0>         0.0628
     38 H4         -1.8894    4.0948    7.3643 H         1 <0>         0.1226
     39 H5         -2.3241    5.8539    9.2694 H         1 <0>         0.1238
     40 H6         -1.3088    7.2788   10.9984 H         1 <0>         0.1256
     41 H7          0.9480    6.7801   11.8407 H         1 <0>         0.1246
     42 H8          2.1974    4.8486   10.9692 H         1 <0>         0.1251
     43 H9          1.1950    3.4040    9.2491 H         1 <0>         0.1298
     44 H10        -2.3300    1.9837    6.4899 H         1 <0>         0.0717
     45 H11        -1.7534    0.5267    7.3342 H         1 <0>         0.0720
     46 H12         0.4652    1.7953    6.1321 H         1 <0>         0.4094
     47 H13        -2.6187    0.1062    5.3239 H         1 <0>         0.1424
     48 H14        -1.1443   -1.4592    1.6143 H         1 <0>         0.1400
     49 H15         1.3794    0.9476    4.0649 H         1 <0>         0.1525
     50 H16         0.9914    0.3308   -0.5386 H         1 <0>         0.4167
     51 H17         3.4091    2.0874    0.0876 H         1 <0>         0.0663
     52 H18         2.8657    3.5479    0.9479 H         1 <0>         0.0722
     53 H19         3.0862    2.0216    1.8368 H         1 <0>         0.0873
     54 H20        -0.2161    2.5933   -0.8176 H         1 <0>         0.0614
     55 H21         0.8895    3.9310   -0.4222 H         1 <0>         0.0770
     56 H22         1.4360    2.6078   -1.4799 H         1 <0>         0.0670
     57 H23         0.9094    2.0315    2.7217 H         1 <0>         0.0701
     58 H24         0.3848    3.5267    1.9108 H         1 <0>         0.0836
     59 H25        -0.5420    2.0230    1.6913 H         1 <0>         0.0676
     60 H26        -4.7323   -4.0681    3.3311 H         1 <0>         0.0897
     61 H27        -5.4750   -2.5934    2.6787 H         1 <0>         0.1117
     62 H28        -5.8995   -4.1948    0.9887 H         1 <0>         0.1267
     63 H29        -4.2996   -4.9517    1.1752 H         1 <0>         0.0908
     64 H30        -4.3627   -2.0720    0.3920 H         1 <0>         0.1338
     65 H31        -4.8663   -3.2607   -0.8343 H         1 <0>         0.1356
     66 H32        -2.0491   -1.7290    0.5521 H         1 <0>         0.1417
     67 H33        -0.9351   -3.0994    0.3377 H         1 <0>         0.1579
     68 H34        -1.3044   -2.8453    2.7295 H         1 <0>         0.1385
     69 H35        -2.1998   -4.2938    2.2129 H         1 <0>         0.1093
     70 H36        -1.5465   -3.7027   -1.7545 H         1 <0>         0.1247
     71 H37        -3.2642   -3.8896   -2.1822 H         1 <0>         0.1237
     72 H38        -2.5968   -2.2700   -1.8662 H         1 <0>         0.1271
     73 N4         -2.8815   -3.5258   -0.1655 N.4       1 <0>        -0.3849
     74 H39        -2.7974   -4.5255    0.0529 H         1 <0>         0.4278
@<TRIPOS>BOND
     1    1    2 1
     2    1   35 1
     3    1   36 1
     4    1   37 1
     5    2    3 2
     6    2   10 1
     7    3    4 1
     8    3   38 1
     9    4    9 ar
    10    4    5 ar
    11    5    6 ar
    12    5   39 1
    13    6    7 ar
    14    6   40 1
    15    7    8 ar
    16    7   41 1
    17    8    9 ar
    18    8   42 1
    19    9   43 1
    20   10   11 1
    21   10   44 1
    22   10   45 1
    23   11   12 1
    24   11   46 1
    25   12   17 ar
    26   12   13 ar
    27   13   14 ar
    28   13   47 1
    29   14   15 ar
    30   14   26 1
    31   15   16 ar
    32   15   48 1
    33   16   17 ar
    34   16   18 1
    35   17   49 1
    36   18   19 2
    37   18   20 2
    38   18   21 1
    39   21   22 1
    40   21   50 1
    41   22   23 1
    42   22   24 1
    43   22   25 1
    44   23   51 1
    45   23   52 1
    46   23   53 1
    47   24   54 1
    48   24   55 1
    49   24   56 1
    50   25   57 1
    51   25   58 1
    52   25   59 1
    53   26   27 2
    54   26   28 am
    55   28   33 1
    56   28   29 1
    57   29   30 1
    58   29   60 1
    59   29   61 1
    60   30   31 1
    61   30   62 1
    62   30   63 1
    63   31   64 1
    64   31   65 1
    65   31   73 1
    66   32   33 1
    67   32   66 1
    68   32   67 1
    69   32   73 1
    70   33   68 1
    71   33   69 1
    72   34   70 1
    73   34   71 1
    74   34   72 1
    75   34   73 1
    76   73   74 1
@<TRIPOS>MOLECULE
ZINC30982584
   70    74     0     0     0
SMALL
USER_CHARGES
1-[[3-(4-fluorophenyl)-1,2,4-oxadiazol-5-yl]methyl]-N-[2-[[(1R)-1-phenylethyl]carbamoyl]phenyl]piperidine-4-carboxamide
@<TRIPOS>ATOM
      1 C1          6.5006    2.4788    1.5035 C.3       1 <0>        -0.1588
      2 C2          5.4041    2.1966    2.5326 C.3       1 <0>         0.1897
      3 H1          4.9833    3.1327    2.9284 H         1 <0>         0.0956
      4 C3          5.9734    1.3756    3.6608 C.ar      1 <0>        -0.0976
      5 C4          6.1294    0.0102    3.5117 C.ar      1 <0>        -0.1170
      6 C5          6.6556   -0.7423    4.5450 C.ar      1 <0>        -0.1120
      7 C6          7.0174   -0.1307    5.7308 C.ar      1 <0>        -0.1146
      8 C7          6.8564    1.2339    5.8818 C.ar      1 <0>        -0.1128
      9 C8          6.3342    1.9870    4.8469 C.ar      1 <0>        -0.1085
     10 N1          4.3127    1.4575    1.8932 N.am      1 <0>        -0.7258
     11 C9          3.3435    2.1231    1.2343 C.2       1 <0>         0.5781
     12 O1          3.3749    3.3369    1.1706 O.2       1 <0>        -0.5621
     13 C10         2.2445    1.3788    0.5904 C.ar      1 <0>        -0.1706
     14 C11         2.2585   -0.0178    0.5710 C.ar      1 <0>        -0.0655
     15 C12         1.2288   -0.7073   -0.0316 C.ar      1 <0>        -0.1364
     16 C13         0.1777   -0.0220   -0.6196 C.ar      1 <0>        -0.0674
     17 C14         0.1504    1.3579   -0.6087 C.ar      1 <0>        -0.1329
     18 C15         1.1792    2.0694   -0.0060 C.ar      1 <0>         0.2079
     19 N2          1.1538    3.4620    0.0057 N.am      1 <0>        -0.6689
     20 C16        -0.0208    4.1137    0.1157 C.2       1 <0>         0.5151
     21 O2         -1.0449    3.4908    0.3003 O.2       1 <0>        -0.5174
     22 C17        -0.0616    5.6163    0.0092 C.3       1 <0>        -0.1190
     23 C18         0.7997    6.2313    1.1157 C.3       1 <0>        -0.1396
     24 C19         0.7057    7.7569    1.0402 C.3       1 <0>        -0.0067
     25 N3         -0.6944    8.1707    1.1980 N.4       1 <0>        -0.4038
     26 C20        -1.5325    7.6309    0.1198 C.3       1 <0>        -0.0011
     27 C21        -1.5052    6.1015    0.1678 C.3       1 <0>        -0.1287
     28 C22        -0.8062    9.6337    1.2693 C.3       1 <0>         0.1073
     29 C23        -0.1367   10.1280    2.5257 C.2       1 <0>         0.1030
     30 N4          1.1190   10.4781    2.6520 N.2       1 <0>        -0.4270
     31 C24         1.2643   10.8500    3.9440 C.2       1 <0>         0.2355
     32 N5          0.0994   10.7052    4.5206 N.2       1 <0>        -0.3416
     33 O3         -0.7144   10.2970    3.7192 O.3       1 <0>         0.1159
     34 C25         2.5118   11.3314    4.5871 C.ar      1 <0>        -0.0619
     35 C26         3.6876   11.4291    3.8455 C.ar      1 <0>        -0.0399
     36 C27         4.8441   11.8816    4.4462 C.ar      1 <0>        -0.1561
     37 C28         4.8403   12.2288    5.7877 C.ar      1 <0>         0.1378
     38 C29         3.6746   12.1281    6.5301 C.ar      1 <0>        -0.1535
     39 C30         2.5124   11.6815    5.9360 C.ar      1 <0>        -0.0457
     40 F1          5.9761   12.6670    6.3733 F         1 <0>        -0.1246
     41 H2          6.0851    3.0781    0.6800 H         1 <0>         0.0647
     42 H3          6.8850    1.5274    1.1070 H         1 <0>         0.0628
     43 H4          7.3200    3.0338    1.9837 H         1 <0>         0.0711
     44 H5          5.8433   -0.4682    2.5867 H         1 <0>         0.1193
     45 H6          6.7817   -1.8084    4.4269 H         1 <0>         0.1268
     46 H7          7.4260   -0.7190    6.5391 H         1 <0>         0.1261
     47 H8          7.1390    1.7117    6.8082 H         1 <0>         0.1261
     48 H9          6.2085    3.0532    4.9649 H         1 <0>         0.1226
     49 H10         4.2843    0.3594    1.9509 H         1 <0>         0.4216
     50 H11         3.0753   -0.5567    1.0281 H         1 <0>         0.1295
     51 H12         1.2412   -1.7871   -0.0461 H         1 <0>         0.1351
     52 H13        -0.6249   -0.5710   -1.0895 H         1 <0>         0.1348
     53 H14        -0.6699    1.8849   -1.0733 H         1 <0>         0.1384
     54 H15         2.0924    4.0299   -0.0748 H         1 <0>         0.4489
     55 H16         0.3281    5.9059   -0.9779 H         1 <0>         0.1208
     56 H17         0.4374    5.8879    2.0959 H         1 <0>         0.0953
     57 H18         1.8461    5.9196    0.9818 H         1 <0>         0.1257
     58 H19         1.3118    8.2018    1.8432 H         1 <0>         0.1333
     59 H20         1.0811    8.0996    0.0647 H         1 <0>         0.1393
     60 H21        -2.5667    7.9829    0.2481 H         1 <0>         0.1441
     61 H22        -1.1463    7.9738   -0.8514 H         1 <0>         0.1362
     62 H23        -2.1201    5.6963   -0.6493 H         1 <0>         0.1256
     63 H24        -1.9042    5.7561    1.1329 H         1 <0>         0.1009
     64 H25        -0.3166   10.0820    0.3922 H         1 <0>         0.1726
     65 H26        -1.8682    9.9201    1.2827 H         1 <0>         0.1725
     66 H27         3.6924   11.1548    2.8009 H         1 <0>         0.1455
     67 H28         5.7548   11.9615    3.8711 H         1 <0>         0.1503
     68 H29         3.6761   12.3994    7.5755 H         1 <0>         0.1508
     69 H30         1.6044   11.6030    6.5155 H         1 <0>         0.1429
     70 H31        -1.0616    7.7552    2.1480 H         1 <0>         0.4477
@<TRIPOS>BOND
     1    1    2 1
     2    1   41 1
     3    1   42 1
     4    1   43 1
     5    2    3 1
     6    2    4 1
     7    2   10 1
     8    4    9 ar
     9    4    5 ar
    10    5    6 ar
    11    5   44 1
    12    6    7 ar
    13    6   45 1
    14    7    8 ar
    15    7   46 1
    16    8    9 ar
    17    8   47 1
    18    9   48 1
    19   10   11 am
    20   10   49 1
    21   11   12 2
    22   11   13 1
    23   13   18 ar
    24   13   14 ar
    25   14   15 ar
    26   14   50 1
    27   15   16 ar
    28   15   51 1
    29   16   17 ar
    30   16   52 1
    31   17   18 ar
    32   17   53 1
    33   18   19 1
    34   19   20 am
    35   19   54 1
    36   20   21 2
    37   20   22 1
    38   22   27 1
    39   22   23 1
    40   22   55 1
    41   23   24 1
    42   23   56 1
    43   23   57 1
    44   24   25 1
    45   24   58 1
    46   24   59 1
    47   25   26 1
    48   25   28 1
    49   25   70 1
    50   26   27 1
    51   26   60 1
    52   26   61 1
    53   27   62 1
    54   27   63 1
    55   28   29 1
    56   28   64 1
    57   28   65 1
    58   29   33 1
    59   29   30 2
    60   30   31 1
    61   31   32 2
    62   31   34 1
    63   32   33 1
    64   34   39 ar
    65   34   35 ar
    66   35   36 ar
    67   35   66 1
    68   36   37 ar
    69   36   67 1
    70   37   38 ar
    71   37   40 1
    72   38   39 ar
    73   38   68 1
    74   39   69 1
@<TRIPOS>MOLECULE
ZINC38902596
   75    78     0     0     0
SMALL
USER_CHARGES

@<TRIPOS>ATOM
      1 C1         -0.2416   -1.4889    3.8255 C.3       1 <0>        -0.1652
      2 C2         -0.4794   -2.6861    2.9029 C.3       1 <0>         0.1369
      3 C3         -0.5853   -3.9622    3.7403 C.3       1 <0>        -0.1649
      4 N1         -1.7240   -2.4874    2.1561 N.am      1 <0>        -0.7162
      5 C4         -1.9018   -3.0980    0.9679 C.2       1 <0>         0.5681
      6 O1         -1.0291   -3.8139    0.5157 O.2       1 <0>        -0.5519
      7 C5         -3.1550   -2.8980    0.2159 C.ar      1 <0>        -0.1600
      8 C6         -4.2063   -2.1733    0.7824 C.ar      1 <0>        -0.0689
      9 C7         -5.3743   -1.9895    0.0747 C.ar      1 <0>        -0.1273
     10 C8         -5.5123   -2.5202   -1.1978 C.ar      1 <0>        -0.0719
     11 C9         -4.4824   -3.2388   -1.7705 C.ar      1 <0>        -0.1207
     12 C10        -3.2960   -3.4292   -1.0746 C.ar      1 <0>         0.1906
     13 N2         -2.2532   -4.1492   -1.6529 N.am      1 <0>        -0.6460
     14 C11        -2.5130   -5.2847   -2.3308 C.2       1 <0>         0.5288
     15 O2         -3.6599   -5.6400   -2.5018 O.2       1 <0>        -0.5173
     16 C12        -1.3784   -6.1129   -2.8764 C.3       1 <0>        -0.1282
     17 H1         -0.7373   -6.4369   -2.0566 H         1 <0>         0.1290
     18 C13        -0.5615   -5.2740   -3.8635 C.3       1 <0>        -0.1326
     19 C14         0.5404   -6.1472   -4.4705 C.3       1 <0>        -0.1391
     20 C15        -0.0941   -7.3705   -5.1356 C.3       1 <0>        -0.0203
     21 N3         -0.8386   -8.1448   -4.1352 N.4       1 <0>        -0.3841
     22 C16        -1.9417   -7.3381   -3.5996 C.3       1 <0>         0.0112
     23 C17        -1.3804   -9.3582   -4.7612 C.3       1 <0>         0.0962
     24 C18        -0.2453  -10.2505   -5.1930 C.2       1 <0>         0.2204
     25 N4          0.3070  -11.1829   -4.4705 N.2       1 <0>        -0.4846
     26 C19         1.2892  -11.7835   -5.1661 C.2       1 <0>         0.3120
     27 N5          1.3649  -11.2265   -6.3495 N.2       1 <0>        -0.2948
     28 O3          0.3619  -10.2223   -6.3863 O.3       1 <0>        -0.0871
     29 C20         2.1451  -12.8920   -4.6746 C.ar      1 <0>        -0.0699
     30 C21         1.9602  -13.4018   -3.3912 C.ar      1 <0>        -0.0572
     31 C22         2.7590  -14.4327   -2.9392 C.ar      1 <0>        -0.1213
     32 C23         3.7419  -14.9592   -3.7577 C.ar      1 <0>        -0.0243
     33 C24         3.9298  -14.4568   -5.0326 C.ar      1 <0>        -0.1240
     34 C25         3.1326  -13.4303   -5.4970 C.ar      1 <0>        -0.0651
     35 C26         4.6117  -16.0840   -3.2582 C.3       1 <0>        -0.0376
     36 C27         3.7360  -17.2886   -2.9074 C.3       1 <0>        -0.1418
     37 C28         5.6099  -16.4794   -4.3482 C.3       1 <0>        -0.1499
     38 C29         5.3721  -15.6260   -2.0121 C.3       1 <0>        -0.1412
     39 H2          0.6844   -1.6368    4.3812 H         1 <0>         0.0777
     40 H3         -0.1661   -0.5798    3.2289 H         1 <0>         0.0640
     41 H4         -1.0736   -1.3973    4.5237 H         1 <0>         0.0639
     42 H5          0.3526   -2.7777    2.2047 H         1 <0>         0.0902
     43 H6         -0.7548   -4.8151    3.0831 H         1 <0>         0.0582
     44 H7          0.3407   -4.1100    4.2960 H         1 <0>         0.0698
     45 H8         -1.4173   -3.8706    4.4385 H         1 <0>         0.0591
     46 H9         -2.4202   -1.9163    2.5169 H         1 <0>         0.4025
     47 H10        -4.1040   -1.7580    1.7741 H         1 <0>         0.1330
     48 H11        -6.1864   -1.4293    0.5142 H         1 <0>         0.1371
     49 H12        -6.4315   -2.3708   -1.7448 H         1 <0>         0.1368
     50 H13        -4.5979   -3.6498   -2.7625 H         1 <0>         0.1389
     51 H14        -1.3401   -3.8333   -1.5677 H         1 <0>         0.4230
     52 H15        -1.2134   -4.9064   -4.6560 H         1 <0>         0.0940
     53 H16        -0.1113   -4.4307   -3.3398 H         1 <0>         0.1030
     54 H17         1.0912   -5.5727   -5.2153 H         1 <0>         0.1232
     55 H18         1.2215   -6.4726   -3.6842 H         1 <0>         0.0933
     56 H19        -0.7748   -7.0440   -5.9218 H         1 <0>         0.1422
     57 H20         0.6877   -7.9943   -5.5690 H         1 <0>         0.1294
     58 H21        -2.5236   -7.9372   -2.8992 H         1 <0>         0.1483
     59 H22        -2.5835   -7.0129   -4.4185 H         1 <0>         0.1473
     60 H23        -2.0068   -9.8885   -4.0438 H         1 <0>         0.1798
     61 H24        -1.9772   -9.0830   -5.6308 H         1 <0>         0.1718
     62 H25         1.1935  -12.9910   -2.7512 H         1 <0>         0.1371
     63 H26         2.6165  -14.8286   -1.9446 H         1 <0>         0.1363
     64 H27         4.6990  -14.8714   -5.6674 H         1 <0>         0.1422
     65 H28         3.2769  -13.0420   -6.4944 H         1 <0>         0.1331
     66 H29         3.1943  -17.6149   -3.7951 H         1 <0>         0.0588
     67 H30         4.3651  -18.1022   -2.5461 H         1 <0>         0.0660
     68 H31         3.0249  -17.0069   -2.1308 H         1 <0>         0.0591
     69 H32         6.2337  -15.6212   -4.5982 H         1 <0>         0.0609
     70 H33         6.2390  -17.2930   -3.9870 H         1 <0>         0.0657
     71 H34         5.0682  -16.8057   -5.2360 H         1 <0>         0.0613
     72 H35         4.6609  -15.3444   -1.2355 H         1 <0>         0.0589
     73 H36         6.0012  -16.4396   -1.6508 H         1 <0>         0.0660
     74 H37         5.9959  -14.7679   -2.2620 H         1 <0>         0.0582
     75 H38        -0.2184   -8.4050   -3.3830 H         1 <0>         0.4303
@<TRIPOS>BOND
     1    1    2 1
     2    1   39 1
     3    1   40 1
     4    1   41 1
     5    2    3 1
     6    2    4 1
     7    2   42 1
     8    3   43 1
     9    3   44 1
    10    3   45 1
    11    4    5 am
    12    4   46 1
    13    5    6 2
    14    5    7 1
    15    7   12 ar
    16    7    8 ar
    17    8    9 ar
    18    8   47 1
    19    9   10 ar
    20    9   48 1
    21   10   11 ar
    22   10   49 1
    23   11   12 ar
    24   11   50 1
    25   12   13 1
    26   13   14 am
    27   13   51 1
    28   14   15 2
    29   14   16 1
    30   16   17 1
    31   16   22 1
    32   16   18 1
    33   18   19 1
    34   18   52 1
    35   18   53 1
    36   19   20 1
    37   19   54 1
    38   19   55 1
    39   20   21 1
    40   20   56 1
    41   20   57 1
    42   21   22 1
    43   21   23 1
    44   21   75 1
    45   22   58 1
    46   22   59 1
    47   23   24 1
    48   23   60 1
    49   23   61 1
    50   24   28 1
    51   24   25 2
    52   25   26 1
    53   26   27 2
    54   26   29 1
    55   27   28 1
    56   29   34 ar
    57   29   30 ar
    58   30   31 ar
    59   30   62 1
    60   31   32 ar
    61   31   63 1
    62   32   33 ar
    63   32   35 1
    64   33   34 ar
    65   33   64 1
    66   34   65 1
    67   35   36 1
    68   35   37 1
    69   35   38 1
    70   36   66 1
    71   36   67 1
    72   36   68 1
    73   37   69 1
    74   37   70 1
    75   37   71 1
    76   38   72 1
    77   38   73 1
    78   38   74 1
@<TRIPOS>MOLECULE
ZINC39678375
   84    88     0     0     0
SMALL
USER_CHARGES

@<TRIPOS>ATOM
      1 C1          0.2493    1.0138    0.4443 C.3       1 <0>        -0.1492
      2 C2          0.0954   -0.4624    0.8159 C.3       1 <0>        -0.0825
      3 C3          0.5098   -0.6670    2.2744 C.3       1 <0>        -0.1500
      4 C4         -1.3644   -0.8840    0.6365 C.3       1 <0>         0.0787
      5 H1         -1.4763   -1.9325    0.9128 H         1 <0>         0.0995
      6 C5         -1.7675   -0.6982   -0.8036 C.2       1 <0>         0.5291
      7 O1         -2.5856    0.1466   -1.1002 O.2       1 <0>        -0.5090
      8 N1         -1.2190   -1.4709   -1.7620 N.am      1 <0>        -0.6161
      9 C6         -0.3005   -2.6205   -1.5867 C.3       1 <0>         0.1128
     10 C7         -0.7616   -3.6528   -2.6399 C.3       1 <0>        -0.1145
     11 H2          0.0982   -4.1674   -3.0688 H         1 <0>         0.1155
     12 C8         -1.4796   -2.8213   -3.7161 C.3       1 <0>        -0.0703
     13 C9         -1.4035   -1.3668   -3.2295 C.3       1 <0>         0.1066
     14 C10        -0.7696   -2.9682   -5.0585 C.3       1 <0>        -0.1337
     15 C11        -1.5352   -2.1794   -6.1246 C.3       1 <0>        -0.0100
     16 N2         -2.9099   -2.6856   -6.2176 N.4       1 <0>        -0.5045
     17 C12        -3.6147   -2.4560   -4.9506 C.3       1 <0>        -0.0096
     18 C13        -2.9371   -3.2566   -3.8349 C.3       1 <0>        -0.1456
     19 C14        -1.7110   -4.6459   -2.0206 C.2       1 <0>         0.5157
     20 O2         -2.4668   -4.2942   -1.1397 O.2       1 <0>        -0.5196
     21 N3         -1.7201   -5.9248   -2.4457 N.am      1 <0>        -0.7168
     22 C15        -2.7163   -6.8633   -1.9231 C.3       1 <0>         0.1742
     23 C16        -2.4369   -8.2432   -2.4605 C.ar      1 <0>        -0.1296
     24 C17        -3.1892   -8.7437   -3.5053 C.ar      1 <0>        -0.0976
     25 C18        -2.9338  -10.0098   -3.9987 C.ar      1 <0>        -0.1256
     26 C19        -1.9248  -10.7793   -3.4486 C.ar      1 <0>        -0.0986
     27 C20        -1.1687  -10.2849   -2.4043 C.ar      1 <0>        -0.1263
     28 C21        -1.4191   -9.0110   -1.9096 C.ar      1 <0>         0.1948
     29 N4         -0.6528   -8.5058   -0.8568 N.pl3     1 <0>        -0.6764
     30 C22        -1.0059   -8.8060    0.5374 C.3       1 <0>         0.1456
     31 C23         0.2214   -9.3931    1.2415 C.3       1 <0>        -0.1381
     32 C24         1.4024   -8.4324    1.0851 C.3       1 <0>        -0.1160
     33 C25         1.7320   -8.2640   -0.3999 C.3       1 <0>        -0.1393
     34 C26         0.5253   -7.6691   -1.1227 C.3       1 <0>         0.1542
     35 O3         -2.1987   -0.0794    1.4723 O.3       1 <0>        -0.2776
     36 C27        -3.4081   -0.5951    1.8163 C.ar      1 <0>         0.1266
     37 C28        -3.7575   -1.8758    1.4132 C.ar      1 <0>        -0.2054
     38 C29        -4.9873   -2.3978    1.7646 C.ar      1 <0>        -0.0776
     39 C30        -5.8698   -1.6450    2.5170 C.ar      1 <0>        -0.1561
     40 C31        -5.5241   -0.3682    2.9196 C.ar      1 <0>        -0.0793
     41 C32        -4.2931    0.1561    2.5760 C.ar      1 <0>        -0.1456
     42 H3          1.2893    1.3141    0.5721 H         1 <0>         0.0647
     43 H4         -0.0459    1.1595   -0.5948 H         1 <0>         0.0501
     44 H5         -0.3859    1.6193    1.0908 H         1 <0>         0.0710
     45 H6          0.7306   -1.0680    0.1694 H         1 <0>         0.0883
     46 H7          0.3165   -1.6994    2.5657 H         1 <0>         0.0569
     47 H8          1.5727   -0.4516    2.3838 H         1 <0>         0.0669
     48 H9         -0.0645    0.0043    2.9129 H         1 <0>         0.0693
     49 H10         0.7289   -2.3169   -1.7774 H         1 <0>         0.0923
     50 H11        -0.3960   -3.0335   -0.5825 H         1 <0>         0.0939
     51 H12        -2.3297   -0.8404   -3.4601 H         1 <0>         0.0880
     52 H13        -0.5530   -0.8595   -3.6848 H         1 <0>         0.0849
     53 H14         0.2456   -2.5799   -4.9776 H         1 <0>         0.1218
     54 H15        -0.7359   -4.0210   -5.3390 H         1 <0>         0.0976
     55 H16        -1.5545   -1.1243   -5.8516 H         1 <0>         0.1326
     56 H17        -1.0394   -2.2958   -7.0883 H         1 <0>         0.1401
     57 H18        -3.3938   -2.2061   -6.9619 H         1 <0>         0.4341
     58 H19        -3.5845   -1.3943   -4.7055 H         1 <0>         0.1340
     59 H20        -4.6519   -2.7763   -5.0489 H         1 <0>         0.1380
     60 H21        -2.9813   -4.3197   -4.0715 H         1 <0>         0.0942
     61 H22        -3.4502   -3.0716   -2.8911 H         1 <0>         0.1254
     62 H23        -1.0671   -6.2239   -3.0976 H         1 <0>         0.3987
     63 H24        -2.6639   -6.8799   -0.8345 H         1 <0>         0.0835
     64 H25        -3.7119   -6.5469   -2.2342 H         1 <0>         0.0681
     65 H26        -3.9779   -8.1454   -3.9371 H         1 <0>         0.1201
     66 H27        -3.5240  -10.3990   -4.8152 H         1 <0>         0.1251
     67 H28        -1.7282  -11.7680   -3.8361 H         1 <0>         0.1263
     68 H29        -0.3811  -10.8864   -1.9749 H         1 <0>         0.1248
     69 H30        -1.3132   -7.8899    1.0419 H         1 <0>         0.0508
     70 H31        -1.8211   -9.5293    0.5603 H         1 <0>         0.0686
     71 H32         0.0023   -9.5309    2.3003 H         1 <0>         0.0699
     72 H33         0.4727  -10.3545    0.7934 H         1 <0>         0.0644
     73 H34         1.1415   -7.4638    1.5114 H         1 <0>         0.0601
     74 H35         2.2705   -8.8363    1.6062 H         1 <0>         0.0629
     75 H36         2.5880   -7.5980   -0.5093 H         1 <0>         0.0675
     76 H37         1.9690   -9.2359   -0.8325 H         1 <0>         0.0645
     77 H38         0.7201   -7.6424   -2.1948 H         1 <0>         0.0601
     78 H39         0.3457   -6.6582   -0.7566 H         1 <0>         0.0450
     79 H40        -3.0688   -2.4639    0.8249 H         1 <0>         0.1263
     80 H41        -5.2597   -3.3947    1.4510 H         1 <0>         0.1218
     81 H42        -6.8309   -2.0548    2.7903 H         1 <0>         0.1243
     82 H43        -6.2154    0.2180    3.5069 H         1 <0>         0.1313
     83 H44        -4.0218    1.1518    2.8945 H         1 <0>         0.1313
     84 H45        -2.8900   -3.6748   -6.4154 H         1 <0>         0.4274
@<TRIPOS>BOND
     1    1    2 1
     2    1   42 1
     3    1   43 1
     4    1   44 1
     5    2    3 1
     6    2    4 1
     7    2   45 1
     8    3   46 1
     9    3   47 1
    10    3   48 1
    11    4    5 1
    12    4    6 1
    13    4   35 1
    14    6    7 2
    15    6    8 am
    16    8   13 1
    17    8    9 1
    18    9   10 1
    19    9   49 1
    20    9   50 1
    21   10   11 1
    22   10   12 1
    23   10   19 1
    24   12   18 1
    25   12   13 1
    26   12   14 1
    27   13   51 1
    28   13   52 1
    29   14   15 1
    30   14   53 1
    31   14   54 1
    32   15   16 1
    33   15   55 1
    34   15   56 1
    35   16   17 1
    36   16   57 1
    37   16   84 1
    38   17   18 1
    39   17   58 1
    40   17   59 1
    41   18   60 1
    42   18   61 1
    43   19   20 2
    44   19   21 am
    45   21   22 1
    46   21   62 1
    47   22   23 1
    48   22   63 1
    49   22   64 1
    50   23   28 ar
    51   23   24 ar
    52   24   25 ar
    53   24   65 1
    54   25   26 ar
    55   25   66 1
    56   26   27 ar
    57   26   67 1
    58   27   28 ar
    59   27   68 1
    60   28   29 1
    61   29   34 1
    62   29   30 1
    63   30   31 1
    64   30   69 1
    65   30   70 1
    66   31   32 1
    67   31   71 1
    68   31   72 1
    69   32   33 1
    70   32   73 1
    71   32   74 1
    72   33   34 1
    73   33   75 1
    74   33   76 1
    75   34   77 1
    76   34   78 1
    77   35   36 1
    78   36   41 ar
    79   36   37 ar
    80   37   38 ar
    81   37   79 1
    82   38   39 ar
    83   38   80 1
    84   39   40 ar
    85   39   81 1
    86   40   41 ar
    87   40   82 1
    88   41   83 1
@<TRIPOS>MOLECULE
ZINC39006685
   55    58     0     0     0
SMALL
USER_CHARGES

@<TRIPOS>ATOM
      1 C1         -2.1157    1.4401   -0.6262 C.3       1 <0>        -0.1767
      2 C2         -2.1034   -0.0368   -0.3271 C.2       1 <0>         0.5160
      3 O1         -2.9644   -0.5201    0.3774 O.2       1 <0>        -0.5269
      4 N1         -1.1358   -0.8207   -0.8425 N.am      1 <0>        -0.6792
      5 C3         -1.0675   -2.1725   -0.4878 C.ar      1 <0>         0.1936
      6 C4          0.1671   -2.7767   -0.2846 C.ar      1 <0>        -0.1691
      7 C5          0.2355   -4.1114    0.0651 C.ar      1 <0>        -0.0505
      8 C6         -0.9227   -4.8499    0.2144 C.ar      1 <0>        -0.2042
      9 C7         -2.1605   -4.2516    0.0130 C.ar      1 <0>         0.1979
     10 C8         -2.2326   -2.9094   -0.3333 C.ar      1 <0>        -0.1615
     11 N2         -3.3310   -4.9986    0.1640 N.pl3     1 <0>        -0.7194
     12 C9         -3.2545   -6.4485    0.3597 C.3       1 <0>         0.3191
     13 H1         -2.2346   -6.7578    0.1313 H         1 <0>         0.1874
     14 C10        -4.1715   -7.0995   -0.6509 C.2       1 <0>         0.4432
     15 N3         -4.0030   -6.8930   -1.9233 N.2       1 <0>        -0.8263
     16 S1         -5.0143   -7.6121   -3.0199 S.o2      1 <0>         2.6287
     17 O2         -4.7764   -9.0105   -2.9355 O.2       1 <0>        -0.9304
     18 O3         -6.3014   -7.0447   -2.8183 O.2       1 <0>        -0.9299
     19 C11        -4.4871   -7.1075   -4.6237 C.ar      1 <0>        -0.6567
     20 C12        -5.0093   -5.9615   -5.1939 C.ar      1 <0>        -0.0018
     21 C13        -4.5962   -5.5652   -6.4519 C.ar      1 <0>        -0.1277
     22 C14        -3.6598   -6.3157   -7.1405 C.ar      1 <0>         0.0274
     23 C15        -3.1376   -7.4625   -6.5693 C.ar      1 <0>        -0.1274
     24 C16        -3.5473   -7.8547   -5.3089 C.ar      1 <0>        -0.0020
     25 Cl1        -3.1408   -5.8188   -8.7208 Cl        1 <0>        -0.0371
     26 N4         -5.1623   -7.8948   -0.2152 N.2       1 <0>        -0.4538
     27 C17        -5.3540   -8.1204    1.0664 C.ar      1 <0>         0.2873
     28 C18        -6.4128   -8.9675    1.4882 C.ar      1 <0>        -0.0360
     29 C19        -6.6171   -9.2037    2.8004 C.ar      1 <0>        -0.1307
     30 C20        -5.8098   -8.6370    3.8104 C.ar      1 <0>         0.2949
     31 C21        -4.7721   -7.8142    3.5128 C.ar      1 <0>        -0.2720
     32 C22        -4.4885   -7.5104    2.1068 C.ar      1 <0>         0.3383
     33 N5         -3.4988   -6.7229    1.7844 N.pl3     1 <0>        -0.5349
     34 O4         -6.0780   -8.9213    5.1097 O.3       1 <0>        -0.2673
     35 C23        -7.1810   -9.7920    5.3690 C.3       1 <0>         0.0003
     36 H2         -2.9659    1.9049   -0.1269 H         1 <0>         0.0999
     37 H3         -1.1914    1.8916   -0.2658 H         1 <0>         0.0962
     38 H4         -2.1989    1.5922   -1.7024 H         1 <0>         0.0953
     39 H5         -0.4866   -0.4477   -1.4592 H         1 <0>         0.4183
     40 H6          1.0743   -2.2023   -0.4004 H         1 <0>         0.1338
     41 H7          1.1965   -4.5787    0.2218 H         1 <0>         0.1369
     42 H8         -0.8658   -5.8932    0.4875 H         1 <0>         0.1187
     43 H9         -3.1936   -2.4408   -0.4861 H         1 <0>         0.1415
     44 H10        -4.1945   -4.5574    0.1394 H         1 <0>         0.4176
     45 H11        -5.7405   -5.3760   -4.6564 H         1 <0>         0.1512
     46 H12        -5.0045   -4.6701   -6.8974 H         1 <0>         0.1519
     47 H13        -2.4068   -8.0488   -7.1065 H         1 <0>         0.1526
     48 H14        -3.1361   -8.7473   -4.8610 H         1 <0>         0.1524
     49 H15        -7.0588   -9.4253    0.7537 H         1 <0>         0.1961
     50 H16        -7.4310   -9.8518    3.0899 H         1 <0>         0.1835
     51 H17        -4.1656   -7.3897    4.2991 H         1 <0>         0.1889
     52 H18        -7.2852   -9.9360    6.4444 H         1 <0>         0.1302
     53 H19        -8.0944   -9.3495    4.9715 H         1 <0>         0.0826
     54 H20        -7.0048  -10.7546    4.8889 H         1 <0>         0.0829
     55 H21        -2.9369   -6.3275    2.4692 H         1 <0>         0.4568
@<TRIPOS>BOND
     1    1    2 1
     2    1   36 1
     3    1   37 1
     4    1   38 1
     5    2    3 2
     6    2    4 am
     7    4    5 1
     8    4   39 1
     9    5   10 ar
    10    5    6 ar
    11    6    7 ar
    12    6   40 1
    13    7    8 ar
    14    7   41 1
    15    8    9 ar
    16    8   42 1
    17    9   10 ar
    18    9   11 1
    19   10   43 1
    20   11   12 1
    21   11   44 1
    22   12   13 1
    23   12   33 1
    24   12   14 1
    25   14   15 2
    26   14   26 1
    27   15   16 1
    28   16   17 2
    29   16   18 2
    30   16   19 1
    31   19   24 ar
    32   19   20 ar
    33   20   21 ar
    34   20   45 1
    35   21   22 ar
    36   21   46 1
    37   22   23 ar
    38   22   25 1
    39   23   24 ar
    40   23   47 1
    41   24   48 1
    42   26   27 2
    43   27   32 ar
    44   27   28 ar
    45   28   29 ar
    46   28   49 1
    47   29   30 ar
    48   29   50 1
    49   30   31 ar
    50   30   34 1
    51   31   32 ar
    52   31   51 1
    53   32   33 2
    54   33   55 1
    55   34   35 1
    56   35   52 1
    57   35   53 1
    58   35   54 1
@<TRIPOS>MOLECULE
ZINC08909065
   56    59     0     0     0
SMALL
USER_CHARGES
N-[5-[(2,4-difluorophenyl)carbamoylmethylsulfanyl]-1,3,4-thiadiazol-2-yl]-1-(3,4-dimethylphenyl)-5-oxo-pyrrolidine-3-carboxamide
@<TRIPOS>ATOM
      1 C1         -7.0325   -2.3642    4.0530 C.3       1 <0>        -0.1155
      2 C2         -6.2086   -1.2770    3.4125 C.ar      1 <0>        -0.1093
      3 C3         -5.7344   -0.2282    4.1793 C.ar      1 <0>        -0.0889
      4 C4         -4.9739    0.7664    3.5966 C.ar      1 <0>        -0.1564
      5 C5         -4.6954    0.7188    2.2367 C.ar      1 <0>         0.1621
      6 C6         -5.1734   -0.3352    1.4696 C.ar      1 <0>        -0.1494
      7 C7         -5.9287   -1.3300    2.0596 C.ar      1 <0>        -0.0600
      8 C8         -6.4478   -2.4744    1.2278 C.3       1 <0>        -0.1180
      9 N1         -3.9301    1.7281    1.6421 N.am      1 <0>        -0.5529
     10 C9         -3.6719    1.8313    0.2001 C.3       1 <0>         0.1084
     11 C10        -2.4693    2.7915    0.0657 C.3       1 <0>        -0.1179
     12 H1         -2.5711    3.4231   -0.8169 H         1 <0>         0.1447
     13 C11        -2.5861    3.6278    1.3611 C.3       1 <0>        -0.1463
     14 C12        -3.3367    2.7275    2.3174 C.2       1 <0>         0.5144
     15 O1         -3.3952    2.8850    3.5186 O.2       1 <0>        -0.5009
     16 C13        -1.1706    2.0279    0.0319 C.2       1 <0>         0.5152
     17 O2         -1.1795    0.8151    0.0507 O.2       1 <0>        -0.4511
     18 N2          0.0006    2.6924   -0.0247 N.am      1 <0>        -0.6097
     19 C14         1.2007    1.9865   -0.0617 C.2       1 <0>         0.2789
     20 N3          1.4208    0.6821   -0.0447 N.2       1 <0>        -0.2685
     21 N4          2.5854    0.2000   -0.0887 N.2       1 <0>        -0.2589
     22 C15         3.6613    0.9714   -0.1433 C.2       1 <0>        -0.0061
     23 S1          2.8863    2.5855   -0.1377 S.3       1 <0>         0.0621
     24 S2          5.3670    0.5340   -0.2049 S.3       1 <0>         0.1430
     25 C16         5.3562   -1.2798   -0.1758 C.3       1 <0>        -0.1630
     26 C17         6.7729   -1.7914   -0.2246 C.2       1 <0>         0.5421
     27 O3          7.6988   -1.0094   -0.2741 O.2       1 <0>        -0.5002
     28 N5          7.0111   -3.1179   -0.2132 N.am      1 <0>        -0.6609
     29 C18         8.3214   -3.5958   -0.3503 C.ar      1 <0>         0.1011
     30 C19         9.3815   -2.8834    0.1928 C.ar      1 <0>        -0.0638
     31 C20        10.6725   -3.3558    0.0567 C.ar      1 <0>        -0.1417
     32 C21        10.9106   -4.5396   -0.6211 C.ar      1 <0>         0.1212
     33 C22         9.8558   -5.2529   -1.1648 C.ar      1 <0>        -0.1727
     34 C23         8.5609   -4.7872   -1.0257 C.ar      1 <0>         0.1089
     35 F1          7.5307   -5.4861   -1.5505 F         1 <0>        -0.1262
     36 F2         12.1743   -4.9991   -0.7526 F         1 <0>        -0.1278
     37 H2         -6.3748   -3.1587    4.4054 H         1 <0>         0.0694
     38 H3         -7.5871   -1.9512    4.8956 H         1 <0>         0.0650
     39 H4         -7.7316   -2.7691    3.3213 H         1 <0>         0.0697
     40 H5         -5.9547   -0.1897    5.2359 H         1 <0>         0.1266
     41 H6         -4.5996    1.5824    4.1969 H         1 <0>         0.1533
     42 H7         -4.9551   -0.3772    0.4127 H         1 <0>         0.1256
     43 H8         -5.7167   -3.2828    1.2256 H         1 <0>         0.0728
     44 H9         -7.3861   -2.8341    1.6501 H         1 <0>         0.0729
     45 H10        -6.6161   -2.1339    0.2061 H         1 <0>         0.0659
     46 H11        -4.5424    2.2432   -0.3106 H         1 <0>         0.1000
     47 H12        -3.4211    0.8530   -0.2098 H         1 <0>         0.1084
     48 H13        -1.5968    3.8619    1.7545 H         1 <0>         0.1116
     49 H14        -3.1500    4.5419    1.1755 H         1 <0>         0.1316
     50 H15         0.0078    3.6622   -0.0397 H         1 <0>         0.4314
     51 H16         4.8764   -1.6256    0.7398 H         1 <0>         0.1359
     52 H17         4.8050   -1.6537   -1.0385 H         1 <0>         0.1359
     53 H18         6.2756   -3.7419   -0.1100 H         1 <0>         0.4206
     54 H19         9.1971   -1.9602    0.7221 H         1 <0>         0.1620
     55 H20        11.4970   -2.8013    0.4798 H         1 <0>         0.1502
     56 H21        10.0437   -6.1760   -1.6930 H         1 <0>         0.1554
@<TRIPOS>BOND
     1    1    2 1
     2    1   37 1
     3    1   38 1
     4    1   39 1
     5    2    7 ar
     6    2    3 ar
     7    3    4 ar
     8    3   40 1
     9    4    5 ar
    10    4   41 1
    11    5    6 ar
    12    5    9 1
    13    6    7 ar
    14    6   42 1
    15    7    8 1
    16    8   43 1
    17    8   44 1
    18    8   45 1
    19    9   14 am
    20    9   10 1
    21   10   11 1
    22   10   46 1
    23   10   47 1
    24   11   12 1
    25   11   13 1
    26   11   16 1
    27   13   14 1
    28   13   48 1
    29   13   49 1
    30   14   15 2
    31   16   17 2
    32   16   18 am
    33   18   19 1
    34   18   50 1
    35   19   23 1
    36   19   20 2
    37   20   21 1
    38   21   22 2
    39   22   23 1
    40   22   24 1
    41   24   25 1
    42   25   26 1
    43   25   51 1
    44   25   52 1
    45   26   27 2
    46   26   28 am
    47   28   29 1
    48   28   53 1
    49   29   34 ar
    50   29   30 ar
    51   30   31 ar
    52   30   54 1
    53   31   32 ar
    54   31   55 1
    55   32   33 ar
    56   32   36 1
    57   33   34 ar
    58   33   56 1
    59   34   35 1
@<TRIPOS>MOLECULE
ZINC12616555
   63    66     0     0     0
SMALL
USER_CHARGES
N-[4-[4-(acetamidomethyl)phenyl]thiazol-2-yl]-4-(azepan-1-ylsulfonyl)benzamide
@<TRIPOS>ATOM
      1 C1         -0.9970    1.7576   -3.6299 C.3       1 <0>        -0.1751
      2 C2         -0.2681    1.2584   -2.4090 C.2       1 <0>         0.5094
      3 O1          0.7262    0.5752   -2.5335 O.2       1 <0>        -0.5451
      4 N1         -0.7213    1.5711   -1.1789 N.am      1 <0>        -0.7292
      5 C3         -0.0127    1.0858    0.0080 C.3       1 <0>         0.1587
      6 C4         -0.7181    1.5718    1.2479 C.ar      1 <0>        -0.1048
      7 C5         -0.3575    2.7801    1.8168 C.ar      1 <0>        -0.0990
      8 C6         -1.0039    3.2328    2.9490 C.ar      1 <0>        -0.1043
      9 C7         -2.0143    2.4649    3.5255 C.ar      1 <0>        -0.0146
     10 C8         -2.3694    1.2455    2.9511 C.ar      1 <0>        -0.0873
     11 C9         -1.7197    0.8053    1.8159 C.ar      1 <0>        -0.1019
     12 C10        -2.7085    2.9432    4.7457 C.2       1 <0>         0.1145
     13 C11        -2.3632    4.1386    5.3123 C.2       1 <0>        -0.2331
     14 S1         -3.4921    4.1868    6.6981 S.3       1 <0>         0.1292
     15 C12        -4.2999    2.6239    6.3823 C.2       1 <0>         0.3116
     16 N2         -3.6726    2.2188    5.2937 N.2       1 <0>        -0.5266
     17 N3         -5.3197    2.0031    7.0911 N.am      1 <0>        -0.6036
     18 C13        -5.8343    2.5935    8.1879 C.2       1 <0>         0.5605
     19 O2         -5.4056    3.6696    8.5567 O.2       1 <0>        -0.4825
     20 C14        -6.9199    1.9327    8.9424 C.ar      1 <0>        -0.0811
     21 C15        -7.4184    0.6996    8.5183 C.ar      1 <0>        -0.1035
     22 C16        -8.4278    0.0855    9.2305 C.ar      1 <0>        -0.0245
     23 C17        -8.9538    0.6944   10.3561 C.ar      1 <0>        -0.6501
     24 C18        -8.4682    1.9192   10.7785 C.ar      1 <0>        -0.0248
     25 C19        -7.4551    2.5415   10.0789 C.ar      1 <0>        -0.0703
     26 S2        -10.2476   -0.0938   11.2559 S.o2      1 <0>         2.6811
     27 O3        -10.1511   -1.4830   10.9730 O.2       1 <0>        -0.9487
     28 O4        -10.1927    0.4197   12.5797 O.2       1 <0>        -0.9438
     29 N4        -11.6807    0.4230   10.6068 N.pl3     1 <0>        -0.9853
     30 C20       -12.3046    1.6053   11.1575 C.3       1 <0>         0.1225
     31 C21       -13.2415    1.2124   12.3190 C.3       1 <0>        -0.1421
     32 C22       -14.4351    0.5257   11.8018 C.3       1 <0>        -0.1201
     33 C23       -14.1430   -0.7907   11.0880 C.3       1 <0>        -0.1194
     34 C24       -13.7942   -0.5115    9.6469 C.3       1 <0>        -0.1255
     35 C25       -12.2714   -0.3458    9.4938 C.3       1 <0>         0.1094
     36 H1         -1.0118    2.8475   -3.6239 H         1 <0>         0.0885
     37 H2         -0.4868    1.4061   -4.5267 H         1 <0>         0.0935
     38 H3         -2.0196    1.3803   -3.6222 H         1 <0>         0.0884
     39 H4         -1.5165    2.1175   -1.0793 H         1 <0>         0.4029
     40 H5          0.0021   -0.0041    0.0020 H         1 <0>         0.0772
     41 H6          1.0099    1.4631    0.0003 H         1 <0>         0.0774
     42 H7          0.4285    3.3722    1.3718 H         1 <0>         0.1288
     43 H8         -0.7244    4.1782    3.3900 H         1 <0>         0.1283
     44 H9         -3.1518    0.6466    3.3934 H         1 <0>         0.1341
     45 H10        -1.9941   -0.1393    1.3700 H         1 <0>         0.1270
     46 H11        -1.6155    4.8557    5.0070 H         1 <0>         0.2015
     47 H12        -5.6618    1.1445    6.7968 H         1 <0>         0.4274
     48 H13        -7.0119    0.2256    7.6372 H         1 <0>         0.1396
     49 H14        -8.8113   -0.8706    8.9061 H         1 <0>         0.1517
     50 H15        -8.8830    2.3889   11.6581 H         1 <0>         0.1530
     51 H16        -7.0767    3.4973   10.4099 H         1 <0>         0.1529
     52 H17       -11.5353    2.2813   11.5307 H         1 <0>         0.0792
     53 H18       -12.8818    2.1065   10.3805 H         1 <0>         0.0851
     54 H19       -13.5465    2.1096   12.8576 H         1 <0>         0.0790
     55 H20       -12.7104    0.5483   13.0010 H         1 <0>         0.0717
     56 H21       -14.9429    1.1922   11.1046 H         1 <0>         0.0610
     57 H22       -15.1055    0.3250   12.6374 H         1 <0>         0.0599
     58 H23       -15.0239   -1.4312   11.1315 H         1 <0>         0.0664
     59 H24       -13.3055   -1.2906   11.5746 H         1 <0>         0.0631
     60 H25       -14.2915    0.4037    9.3254 H         1 <0>         0.0701
     61 H26       -14.1315   -1.3427    9.0277 H         1 <0>         0.0785
     62 H27       -12.0641    0.1716    8.5570 H         1 <0>         0.0680
     63 H28       -11.8107   -1.3331    9.4619 H         1 <0>         0.0951
@<TRIPOS>BOND
     1    1    2 1
     2    1   36 1
     3    1   37 1
     4    1   38 1
     5    2    3 2
     6    2    4 am
     7    4    5 1
     8    4   39 1
     9    5    6 1
    10    5   40 1
    11    5   41 1
    12    6   11 ar
    13    6    7 ar
    14    7    8 ar
    15    7   42 1
    16    8    9 ar
    17    8   43 1
    18    9   10 ar
    19    9   12 1
    20   10   11 ar
    21   10   44 1
    22   11   45 1
    23   12   16 1
    24   12   13 2
    25   13   14 1
    26   13   46 1
    27   14   15 1
    28   15   16 2
    29   15   17 1
    30   17   18 am
    31   17   47 1
    32   18   19 2
    33   18   20 1
    34   20   25 ar
    35   20   21 ar
    36   21   22 ar
    37   21   48 1
    38   22   23 ar
    39   22   49 1
    40   23   24 ar
    41   23   26 1
    42   24   25 ar
    43   24   50 1
    44   25   51 1
    45   26   27 2
    46   26   28 2
    47   26   29 1
    48   29   35 1
    49   29   30 1
    50   30   31 1
    51   30   52 1
    52   30   53 1
    53   31   32 1
    54   31   54 1
    55   31   55 1
    56   32   33 1
    57   32   56 1
    58   32   57 1
    59   33   34 1
    60   33   58 1
    61   33   59 1
    62   34   35 1
    63   34   60 1
    64   34   61 1
    65   35   62 1
    66   35   63 1
@<TRIPOS>MOLECULE
ZINC34899896
   59    61     0     0     0
SMALL
USER_CHARGES

@<TRIPOS>ATOM
      1 C1         -0.1186    1.3215    3.3916 C.ar      1 <0>        -0.0909
      2 C2          1.0185    2.0510    3.0929 C.ar      1 <0>        -0.1267
      3 C3          2.1752    1.4048    2.7085 C.ar      1 <0>        -0.0584
      4 C4          2.1967    0.0119    2.6213 C.ar      1 <0>        -0.1395
      5 C5          1.0462   -0.7180    2.9240 C.ar      1 <0>        -0.0866
      6 C6         -0.1040   -0.0595    3.3071 C.ar      1 <0>        -0.1270
      7 C7          3.4326   -0.6872    2.2096 C.2       1 <0>         0.5630
      8 O1          4.4330   -0.0489    1.9462 O.2       1 <0>        -0.5317
      9 N1          3.4501   -2.0323    2.1263 N.am      1 <0>        -0.7258
     10 C8          4.6748   -2.7250    1.7183 C.3       1 <0>         0.1089
     11 C9          4.4266   -4.2347    1.7053 C.3       1 <0>         0.1075
     12 N2          5.6513   -4.9274    1.2974 N.am      1 <0>        -0.7281
     13 C10         5.6688   -6.2725    1.2141 C.2       1 <0>         0.5212
     14 O2          4.6707   -6.9094    1.4769 O.2       1 <0>        -0.5312
     15 C11         6.9286   -6.9851    0.7944 C.3       1 <0>        -0.1072
     16 C12         8.0516   -6.6597    1.7819 C.3       1 <0>        -0.1273
     17 C13         9.3392   -7.3578    1.3330 C.3       1 <0>         0.1135
     18 N3          9.0692   -8.7937    1.1780 N.am      1 <0>        -0.6045
     19 C14         7.9521   -9.2141    0.3212 C.3       1 <0>         0.0935
     20 C15         6.6801   -8.4952    0.7815 C.3       1 <0>        -0.1153
     21 C16         9.8321   -9.7079    1.8094 C.2       1 <0>         0.5656
     22 O3         10.7953   -9.3512    2.4595 O.2       1 <0>        -0.5159
     23 C17         9.4974  -11.1447    1.7114 C.ar      1 <0>        -0.1248
     24 C18         9.3920  -11.9202    2.8671 C.ar      1 <0>         0.0103
     25 C19         9.0789  -13.2602    2.7687 C.ar      1 <0>        -0.1840
     26 C20         8.8701  -13.8357    1.5279 C.ar      1 <0>        -0.0029
     27 C21         8.9736  -13.0726    0.3784 C.ar      1 <0>        -0.1864
     28 C22         9.2799  -11.7301    0.4632 C.ar      1 <0>        -0.0121
     29 C23         8.7450  -13.7080   -0.9689 C.3       1 <0>         0.5137
     30 F1          8.4453  -15.0640   -0.8001 F         1 <0>        -0.1700
     31 F2          7.6772  -13.0706   -1.6099 F         1 <0>        -0.1698
     32 F3          9.9003  -13.5791   -1.7473 F         1 <0>        -0.1692
     33 C24         8.9646  -14.0991    4.0154 C.3       1 <0>         0.5135
     34 F4          7.6459  -14.0648    4.4813 F         1 <0>        -0.1692
     35 F5          9.3217  -15.4198    3.7231 F         1 <0>        -0.1700
     36 F6          9.8201  -13.5915    4.9991 F         1 <0>        -0.1692
     37 H1         -1.0202    1.8319    3.6964 H         1 <0>         0.1293
     38 H2          1.0004    3.1287    3.1605 H         1 <0>         0.1320
     39 H3          3.0620    1.9754    2.4753 H         1 <0>         0.1370
     40 H4          1.0562   -1.7960    2.8581 H         1 <0>         0.1256
     41 H5         -0.9949   -0.6231    3.5416 H         1 <0>         0.1308
     42 H6          2.6519   -2.5416    2.3365 H         1 <0>         0.4034
     43 H7          4.9633   -2.3956    0.7201 H         1 <0>         0.0778
     44 H8          5.4745   -2.4943    2.4222 H         1 <0>         0.0778
     45 H9          4.1382   -4.5641    2.7035 H         1 <0>         0.0764
     46 H10         3.6270   -4.4654    1.0014 H         1 <0>         0.0767
     47 H11         6.4496   -4.4181    1.0871 H         1 <0>         0.4044
     48 H12         7.2166   -6.6560   -0.2040 H         1 <0>         0.1050
     49 H13         8.2122   -5.5819    1.8079 H         1 <0>         0.0852
     50 H14         7.7750   -7.0109    2.7760 H         1 <0>         0.0771
     51 H15         9.6667   -6.9426    0.3799 H         1 <0>         0.0785
     52 H16        10.1154   -7.2109    2.0840 H         1 <0>         0.1023
     53 H17         8.1665   -8.9503   -0.7144 H         1 <0>         0.0820
     54 H18         7.8132  -10.2920    0.4046 H         1 <0>         0.0930
     55 H19         6.4164   -8.8290    1.7850 H         1 <0>         0.0789
     56 H20         5.8645   -8.7238    0.0954 H         1 <0>         0.0900
     57 H21         9.5554  -11.4724    3.8362 H         1 <0>         0.1563
     58 H22         8.6256  -14.8852    1.4563 H         1 <0>         0.1601
     59 H23         9.3556  -11.1345   -0.4345 H         1 <0>         0.1532
@<TRIPOS>BOND
     1    1    6 ar
     2    1    2 ar
     3    1   37 1
     4    2    3 ar
     5    2   38 1
     6    3    4 ar
     7    3   39 1
     8    4    5 ar
     9    4    7 1
    10    5    6 ar
    11    5   40 1
    12    6   41 1
    13    7    8 2
    14    7    9 am
    15    9   10 1
    16    9   42 1
    17   10   11 1
    18   10   43 1
    19   10   44 1
    20   11   12 1
    21   11   45 1
    22   11   46 1
    23   12   13 am
    24   12   47 1
    25   13   14 2
    26   13   15 1
    27   15   20 1
    28   15   16 1
    29   15   48 1
    30   16   17 1
    31   16   49 1
    32   16   50 1
    33   17   18 1
    34   17   51 1
    35   17   52 1
    36   18   19 1
    37   18   21 am
    38   19   20 1
    39   19   53 1
    40   19   54 1
    41   20   55 1
    42   20   56 1
    43   21   22 2
    44   21   23 1
    45   23   28 ar
    46   23   24 ar
    47   24   25 ar
    48   24   57 1
    49   25   26 ar
    50   25   33 1
    51   26   27 ar
    52   26   58 1
    53   27   28 ar
    54   27   29 1
    55   28   59 1
    56   29   30 1
    57   29   31 1
    58   29   32 1
    59   33   34 1
    60   33   35 1
    61   33   36 1
@<TRIPOS>MOLECULE
ZINC39992580
   56    59     0     0     0
SMALL
USER_CHARGES

@<TRIPOS>ATOM
      1 C1          1.0892   -0.4894   -0.7704 C.ar      1 <0>        -0.0842
      2 C2          2.2642    0.2288   -0.8111 C.ar      1 <0>        -0.0915
      3 C3          2.3699    1.4310   -0.1301 C.ar      1 <0>        -0.0656
      4 C4          1.2968    1.9210    0.5970 C.ar      1 <0>        -0.0953
      5 C5          0.1147    1.2152    0.6481 C.ar      1 <0>        -0.0677
      6 C6         -0.0008   -0.0009   -0.0380 C.ar      1 <0>        -0.0971
      7 C7         -1.2556   -0.7586    0.0105 C.2       1 <0>         0.0891
      8 C8         -1.2359   -2.1301   -0.1010 C.2       1 <0>        -0.1274
      9 C9          0.0137   -2.8293   -0.1173 C.1       1 <0>         0.2346
     10 N1          1.0050   -3.3840   -0.1303 N.1       1 <0>        -0.3860
     11 C10        -2.4991   -2.8782   -0.2033 C.2       1 <0>         0.5721
     12 O1         -3.5606   -2.2843   -0.1894 O.2       1 <0>        -0.4876
     13 N2         -2.4799   -4.2214   -0.3125 N.am      1 <0>        -0.6137
     14 C11        -3.6689   -4.9256   -0.4088 C.2       1 <0>         0.0323
     15 C12        -3.8408   -6.2968   -0.5208 C.2       1 <0>        -0.2253
     16 C13        -5.2043   -6.7900   -0.6072 C.2       1 <0>        -0.0595
     17 C14        -6.1455   -5.8224   -0.5661 C.2       1 <0>        -0.2216
     18 S1         -5.2332   -4.3151   -0.4094 S.3       1 <0>         0.2917
     19 C15        -7.6299   -6.0078   -0.6347 C.3       1 <0>        -0.0345
     20 C16        -7.9153   -7.4305   -1.1378 C.3       1 <0>        -0.1145
     21 C17        -7.0558   -8.4186   -0.3441 C.3       1 <0>        -0.1190
     22 C18        -5.5843   -8.2580   -0.7332 C.3       1 <0>        -0.0601
     23 C19        -2.6947   -7.2103   -0.5513 C.2       1 <0>         0.5793
     24 O2         -2.2560   -7.6711    0.4864 O.2       1 <0>        -0.5315
     25 N3         -2.1268   -7.5400   -1.7282 N.am      1 <0>        -0.7174
     26 C20        -0.9815   -8.4530   -1.7587 C.3       1 <0>         0.1200
     27 C21        -0.5320   -8.6592   -3.2065 C.3       1 <0>         0.0680
     28 H1         -0.2524   -7.7057   -3.6547 H         1 <0>         0.0778
     29 C22         0.6578   -9.6501   -3.2644 C.3       1 <0>        -0.1487
     30 C23         0.5176  -10.1950   -4.7119 C.3       1 <0>        -0.1555
     31 C24        -1.0131  -10.2012   -4.9128 C.3       1 <0>         0.0501
     32 O3         -1.5782   -9.2810   -3.9696 O.3       1 <0>        -0.3766
     33 Br1         3.9878    2.4080   -0.1926 Br        1 <0>        -0.0346
     34 H2          1.0071   -1.4241   -1.3051 H         1 <0>         0.1356
     35 H3          3.1053   -0.1463   -1.3752 H         1 <0>         0.1406
     36 H4          1.3875    2.8586    1.1253 H         1 <0>         0.1442
     37 H5         -0.7205    1.5982    1.2157 H         1 <0>         0.1476
     38 H6         -2.1950   -0.2402    0.1336 H         1 <0>         0.1747
     39 H7         -1.6334   -4.6950   -0.3235 H         1 <0>         0.4179
     40 H8         -8.0630   -5.8749    0.3567 H         1 <0>         0.0826
     41 H9         -8.0595   -5.2812   -1.3243 H         1 <0>         0.0816
     42 H10        -8.9698   -7.6647   -0.9917 H         1 <0>         0.0737
     43 H11        -7.6675   -7.4998   -2.1970 H         1 <0>         0.0683
     44 H12        -7.1719   -8.2244    0.7221 H         1 <0>         0.0671
     45 H13        -7.3789   -9.4364   -0.5627 H         1 <0>         0.0699
     46 H14        -5.4398   -8.5860   -1.7626 H         1 <0>         0.0785
     47 H15        -4.9628   -8.8551   -0.0660 H         1 <0>         0.0747
     48 H16        -2.4764   -7.1728   -2.5552 H         1 <0>         0.4061
     49 H17        -0.1615   -8.0265   -1.1809 H         1 <0>         0.0807
     50 H18        -1.2696   -9.4118   -1.3276 H         1 <0>         0.0772
     51 H19         1.6073   -9.1321   -3.1298 H         1 <0>         0.0879
     52 H20         0.5404  -10.4481   -2.5312 H         1 <0>         0.0846
     53 H21         0.9998   -9.5275   -5.4261 H         1 <0>         0.0784
     54 H22         0.9228  -11.2040   -4.7876 H         1 <0>         0.0857
     55 H23        -1.2542   -9.8834   -5.9272 H         1 <0>         0.0705
     56 H24        -1.4054  -11.2024   -4.7347 H         1 <0>         0.0716
@<TRIPOS>BOND
     1    1    6 ar
     2    1    2 ar
     3    1   34 1
     4    2    3 ar
     5    2   35 1
     6    3    4 ar
     7    3   33 1
     8    4    5 ar
     9    4   36 1
    10    5    6 ar
    11    5   37 1
    12    6    7 1
    13    7    8 2
    14    7   38 1
    15    8    9 1
    16    8   11 1
    17    9   10 3
    18   11   12 2
    19   11   13 am
    20   13   14 1
    21   13   39 1
    22   14   18 1
    23   14   15 2
    24   15   16 1
    25   15   23 1
    26   16   22 1
    27   16   17 2
    28   17   18 1
    29   17   19 1
    30   19   20 1
    31   19   40 1
    32   19   41 1
    33   20   21 1
    34   20   42 1
    35   20   43 1
    36   21   22 1
    37   21   44 1
    38   21   45 1
    39   22   46 1
    40   22   47 1
    41   23   24 2
    42   23   25 am
    43   25   26 1
    44   25   48 1
    45   26   27 1
    46   26   49 1
    47   26   50 1
    48   27   28 1
    49   27   32 1
    50   27   29 1
    51   29   30 1
    52   29   51 1
    53   29   52 1
    54   30   31 1
    55   30   53 1
    56   30   54 1
    57   31   32 1
    58   31   55 1
    59   31   56 1
@<TRIPOS>MOLECULE
ZINC35166836
   60    63     0     0     0
SMALL
USER_CHARGES

@<TRIPOS>ATOM
      1 C1         -0.7849    1.7700    1.3011 C.3       1 <0>        -0.1165
      2 C2         -0.5989    0.3281    0.9043 C.ar      1 <0>        -0.0760
      3 C3          0.2457    0.0038   -0.1415 C.ar      1 <0>        -0.1182
      4 C4          0.4187   -1.3166   -0.5074 C.ar      1 <0>        -0.0829
      5 C5         -0.2568   -2.3193    0.1763 C.ar      1 <0>         0.1213
      6 C6         -1.1044   -1.9902    1.2262 C.ar      1 <0>        -0.0585
      7 C7         -1.2689   -0.6682    1.5904 C.ar      1 <0>        -0.1182
      8 C8         -1.8393   -3.0748    1.9708 C.3       1 <0>        -0.1059
      9 N1         -0.0842   -3.6574   -0.1920 N.am      1 <0>        -0.6671
     10 C9          0.3421   -4.5568    0.7167 C.2       1 <0>         0.5691
     11 O1          0.4795   -4.2281    1.8794 O.2       1 <0>        -0.5264
     12 C10         0.6421   -5.9397    0.3010 C.ar      1 <0>        -0.1742
     13 C11         0.3685   -6.3561   -1.0041 C.ar      1 <0>        -0.0657
     14 C12         0.6510   -7.6495   -1.3864 C.ar      1 <0>        -0.1417
     15 C13         1.2053   -8.5412   -0.4821 C.ar      1 <0>        -0.0669
     16 C14         1.4811   -8.1443    0.8107 C.ar      1 <0>        -0.1393
     17 C15         1.2090   -6.8432    1.2121 C.ar      1 <0>         0.2102
     18 N2          1.4923   -6.4388    2.5145 N.am      1 <0>        -0.6525
     19 C16         1.4470   -7.3323    3.5225 C.2       1 <0>         0.5301
     20 O2          1.2365   -8.5030    3.2861 O.2       1 <0>        -0.5108
     21 C17         1.6578   -6.8766    4.9434 C.3       1 <0>        -0.1215
     22 H1          0.9135   -6.1324    5.2268 H         1 <0>         0.1313
     23 C18         3.0905   -6.3298    5.1424 C.3       1 <0>        -0.1450
     24 C19         3.4729   -6.7886    6.5324 C.2       1 <0>         0.5226
     25 O3          4.3950   -6.3427    7.1819 O.2       1 <0>        -0.4970
     26 N3          2.6418   -7.7620    6.9429 N.am      1 <0>        -0.5586
     27 C20         1.6393   -8.0757    5.9171 C.3       1 <0>         0.1104
     28 C21         2.7212   -8.3948    8.1887 C.ar      1 <0>         0.1815
     29 C22         3.6243   -7.9432    9.1421 C.ar      1 <0>        -0.1508
     30 C23         3.7002   -8.5692   10.3708 C.ar      1 <0>        -0.0597
     31 C24         2.8775   -9.6455   10.6523 C.ar      1 <0>        -0.1162
     32 C25         1.9768  -10.0976    9.7043 C.ar      1 <0>        -0.0608
     33 C26         1.8930   -9.4719    8.4759 C.ar      1 <0>        -0.1515
     34 Br1         2.9848  -10.5005   12.3355 Br        1 <0>        -0.0497
     35 C27         1.3389   -1.6691   -1.6476 C.3       1 <0>        -0.1118
     36 H2         -0.0418    2.0390    2.0518 H         1 <0>         0.0722
     37 H3         -0.6630    2.4067    0.4247 H         1 <0>         0.0676
     38 H4         -1.7844    1.9073    1.7137 H         1 <0>         0.0675
     39 H5          0.7704    0.7840   -0.6730 H         1 <0>         0.1262
     40 H6         -1.9246   -0.4119    2.4094 H         1 <0>         0.1253
     41 H7         -1.2959   -3.3217    2.8828 H         1 <0>         0.0836
     42 H8         -2.8396   -2.7259    2.2271 H         1 <0>         0.0610
     43 H9         -1.9139   -3.9614    1.3411 H         1 <0>         0.0558
     44 H10        -0.2713   -3.9381   -1.1014 H         1 <0>         0.4077
     45 H11        -0.0641   -5.6652   -1.7126 H         1 <0>         0.1287
     46 H12         0.4390   -7.9699   -2.3957 H         1 <0>         0.1327
     47 H13         1.4226   -9.5531   -0.7908 H         1 <0>         0.1340
     48 H14         1.9132   -8.8452    1.5096 H         1 <0>         0.1553
     49 H15         1.7223   -5.5141    2.6961 H         1 <0>         0.4264
     50 H16         3.7672   -6.7544    4.4009 H         1 <0>         0.1165
     51 H17         3.0948   -5.2413    5.0853 H         1 <0>         0.1225
     52 H18         0.6535   -8.1779    6.3709 H         1 <0>         0.0987
     53 H19         1.9106   -8.9918    5.3925 H         1 <0>         0.1046
     54 H20         4.2669   -7.1034    8.9227 H         1 <0>         0.1628
     55 H21         4.4026   -8.2186   11.1124 H         1 <0>         0.1381
     56 H22         1.3360  -10.9381    9.9265 H         1 <0>         0.1385
     57 H23         1.1869   -9.8226    7.7377 H         1 <0>         0.1365
     58 H24         2.3459   -1.8336   -1.2641 H         1 <0>         0.0723
     59 H25         0.9828   -2.5768   -2.1346 H         1 <0>         0.0617
     60 H26         1.3537   -0.8518   -2.3686 H         1 <0>         0.0708
@<TRIPOS>BOND
     1    1    2 1
     2    1   36 1
     3    1   37 1
     4    1   38 1
     5    2    7 ar
     6    2    3 ar
     7    3    4 ar
     8    3   39 1
     9    4    5 ar
    10    4   35 1
    11    5    6 ar
    12    5    9 1
    13    6    7 ar
    14    6    8 1
    15    7   40 1
    16    8   41 1
    17    8   42 1
    18    8   43 1
    19    9   10 am
    20    9   44 1
    21   10   11 2
    22   10   12 1
    23   12   17 ar
    24   12   13 ar
    25   13   14 ar
    26   13   45 1
    27   14   15 ar
    28   14   46 1
    29   15   16 ar
    30   15   47 1
    31   16   17 ar
    32   16   48 1
    33   17   18 1
    34   18   19 am
    35   18   49 1
    36   19   20 2
    37   19   21 1
    38   21   22 1
    39   21   27 1
    40   21   23 1
    41   23   24 1
    42   23   50 1
    43   23   51 1
    44   24   25 2
    45   24   26 am
    46   26   27 1
    47   26   28 1
    48   27   52 1
    49   27   53 1
    50   28   33 ar
    51   28   29 ar
    52   29   30 ar
    53   29   54 1
    54   30   31 ar
    55   30   55 1
    56   31   32 ar
    57   31   34 1
    58   32   33 ar
    59   32   56 1
    60   33   57 1
    61   35   58 1
    62   35   59 1
    63   35   60 1
@<TRIPOS>MOLECULE
ZINC09043240
   42    46     0     0     0
SMALL
USER_CHARGES
(5R)-5-(3-bromophenyl)-1-(6-fluoro-1,3-benzothiazol-2-yl)-4-(furan-2-carbonyl)-3-hydroxy-5H-pyrrol-2-one
@<TRIPOS>ATOM
      1 C1         -2.4628    0.3938    2.4465 C.ar      1 <0>        -0.1136
      2 C2         -2.7155    1.0982    1.2839 C.ar      1 <0>        -0.0854
      3 C3         -3.6564    2.1107    1.2794 C.ar      1 <0>        -0.0651
      4 C4         -4.3412    2.4233    2.4389 C.ar      1 <0>        -0.0630
      5 C5         -4.0928    1.7153    3.6007 C.ar      1 <0>        -0.0858
      6 C6         -3.1510    0.7019    3.6047 C.ar      1 <0>        -0.0958
      7 Br1        -5.0352    2.1368    5.1850 Br        1 <0>        -0.0612
      8 C7         -3.9313    2.8781    0.0119 C.3       1 <0>         0.2713
      9 H1         -3.5506    2.2906   -0.8366 H         1 <0>         0.0955
     10 C8         -3.2990    4.2483    0.0864 C.2       1 <0>        -0.4823
     11 C9         -4.3041    5.1482   -0.0213 C.2       1 <0>         0.2753
     12 C10        -5.5860    4.4304   -0.1587 C.2       1 <0>         0.5150
     13 O1         -6.6730    4.9611   -0.2756 O.2       1 <0>        -0.4801
     14 N1         -5.3743    3.1020   -0.1361 N.am      1 <0>        -0.5051
     15 C11        -6.3445    2.1205   -0.2402 C.2       1 <0>         0.4152
     16 N2         -6.2000    0.8159   -0.2310 N.2       1 <0>        -0.5458
     17 C12        -7.2470   -0.0313   -0.3374 C.ar      1 <0>         0.1140
     18 C13        -7.2291   -1.4454   -0.3356 C.ar      1 <0>        -0.0470
     19 C14        -8.3907   -2.1611   -0.4604 C.ar      1 <0>        -0.1358
     20 C15        -9.6214   -1.5297   -0.5917 C.ar      1 <0>         0.0959
     21 C16        -9.6755   -0.1463   -0.5970 C.ar      1 <0>        -0.0857
     22 C17        -8.5156    0.5774   -0.4728 C.ar      1 <0>        -0.1601
     23 S1         -8.1119    2.3071   -0.4290 S.3       1 <0>         0.0680
     24 F1        -10.7529   -2.2578   -0.7134 F         1 <0>        -0.1341
     25 O2         -4.1567    6.4939   -0.0058 O.3       1 <0>        -0.6296
     26 C18        -1.8704    4.5460    0.2395 C.2       1 <0>         0.5469
     27 O3         -1.4645    5.0771    1.2583 O.2       1 <0>        -0.4443
     28 C19        -0.9314    4.2044   -0.8331 C.2       1 <0>        -0.0661
     29 C20         0.4117    4.5119   -0.8648 C.2       1 <0>        -0.1512
     30 C21         0.9115    3.9947   -2.0686 C.2       1 <0>        -0.2263
     31 C22        -0.1228    3.4051   -2.7103 C.2       1 <0>        -0.0272
     32 O4         -1.2292    3.5373   -1.9674 O.3       1 <0>        -0.1453
     33 H2         -1.7273   -0.3970    2.4496 H         1 <0>         0.1293
     34 H3         -2.1778    0.8569    0.3789 H         1 <0>         0.1273
     35 H4         -5.0729    3.2177    2.4364 H         1 <0>         0.1220
     36 H5         -2.9533    0.1519    4.5129 H         1 <0>         0.1279
     37 H6         -6.2888   -1.9671   -0.2349 H         1 <0>         0.1410
     38 H7         -8.3488   -3.2403   -0.4564 H         1 <0>         0.1423
     39 H8        -10.6240    0.3603   -0.6985 H         1 <0>         0.1420
     40 H9          0.9700    5.0459   -0.1101 H         1 <0>         0.1545
     41 H10         1.9317    4.0554   -2.4178 H         1 <0>         0.1496
     42 H11        -0.0665    2.9113   -3.6691 H         1 <0>         0.2029
@<TRIPOS>BOND
     1    1    6 ar
     2    1    2 ar
     3    1   33 1
     4    2    3 ar
     5    2   34 1
     6    3    4 ar
     7    3    8 1
     8    4    5 ar
     9    4   35 1
    10    5    6 ar
    11    5    7 1
    12    6   36 1
    13    8    9 1
    14    8   14 1
    15    8   10 1
    16   10   11 2
    17   10   26 1
    18   11   12 1
    19   11   25 1
    20   12   13 2
    21   12   14 am
    22   14   15 1
    23   15   23 1
    24   15   16 2
    25   16   17 1
    26   17   22 ar
    27   17   18 ar
    28   18   19 ar
    29   18   37 1
    30   19   20 ar
    31   19   38 1
    32   20   21 ar
    33   20   24 1
    34   21   22 ar
    35   21   39 1
    36   22   23 1
    37   26   27 2
    38   26   28 1
    39   28   32 1
    40   28   29 2
    41   29   30 1
    42   29   40 1
    43   30   31 2
    44   30   41 1
    45   31   32 1
    46   31   42 1
@<TRIPOS>MOLECULE
ZINC34921062
   53    57     0     0     0
SMALL
USER_CHARGES

@<TRIPOS>ATOM
      1 C1         -0.5748    0.7213    0.9787 C.3       1 <0>        -0.0736
      2 C2         -0.3647   -0.6567    0.4060 C.2       1 <0>        -0.0082
      3 C3         -1.3369   -1.4624   -0.0787 C.2       1 <0>        -0.2217
      4 C4         -0.7183   -2.6444   -0.5110 C.2       1 <0>        -0.1562
      5 C5          0.6292   -2.4959   -0.2623 C.2       1 <0>        -0.0567
      6 O1          0.8155   -1.2788    0.2895 O.3       1 <0>        -0.1423
      7 C6          1.6743   -3.4825   -0.5505 C.2       1 <0>         0.5032
      8 O2          1.3701   -4.5957   -0.9415 O.2       1 <0>        -0.4643
      9 C7          3.0869   -3.1295   -0.3681 C.2       1 <0>        -0.4636
     10 C8          4.1468   -3.9653   -0.4645 C.2       1 <0>         0.2873
     11 C9          5.3874   -3.2080   -0.2096 C.2       1 <0>         0.5107
     12 O3          6.5073   -3.6795   -0.2245 O.2       1 <0>        -0.4794
     13 N1          5.0961   -1.9188    0.0414 N.am      1 <0>        -0.5015
     14 C10         3.6393   -1.7612   -0.0430 C.3       1 <0>         0.2612
     15 H1          3.2459   -1.4155    0.9130 H         1 <0>         0.0937
     16 C11         3.2825   -0.7853   -1.1345 C.ar      1 <0>        -0.0683
     17 C12         2.5933    0.3728   -0.8261 C.ar      1 <0>        -0.0703
     18 C13         2.2637    1.2711   -1.8238 C.ar      1 <0>        -0.1776
     19 C14         2.6246    1.0120   -3.1363 C.ar      1 <0>         0.0970
     20 C15         3.3186   -0.1535   -3.4467 C.ar      1 <0>         0.0923
     21 C16         3.6501   -1.0474   -2.4411 C.ar      1 <0>        -0.1420
     22 O4          3.6750   -0.4123   -4.7333 O.3       1 <0>        -0.3104
     23 C17         4.2912   -1.6750   -4.9944 C.3       1 <0>         0.0261
     24 O5          2.3007    1.8944   -4.1191 O.3       1 <0>        -0.3096
     25 C18         1.5875    3.0690   -3.7271 C.3       1 <0>         0.0291
     26 C19         6.0087   -0.9174    0.3230 C.2       1 <0>         0.4205
     27 N2          5.7864    0.3504    0.5811 N.2       1 <0>        -0.5461
     28 C20         6.7831    1.2238    0.8418 C.ar      1 <0>         0.1297
     29 C21         6.6806    2.6041    1.1324 C.ar      1 <0>        -0.0647
     30 C22         7.8015    3.3540    1.3745 C.ar      1 <0>        -0.0954
     31 C23         9.0709    2.7919    1.3440 C.ar      1 <0>        -0.0392
     32 C24         9.2080    1.4439    1.0634 C.ar      1 <0>        -0.0402
     33 C25         8.0901    0.6856    0.8197 C.ar      1 <0>        -0.1756
     34 S1          7.7893   -1.0228    0.4357 S.3       1 <0>         0.0619
     35 Cl1        10.4711    3.7702    1.6542 Cl        1 <0>        -0.0637
     36 O6          4.0795   -5.2872   -0.7492 O.3       1 <0>        -0.5866
     37 H2          0.3762    1.1142    1.3382 H         1 <0>         0.0753
     38 H3         -0.9709    1.3796    0.2055 H         1 <0>         0.0817
     39 H4         -1.2817    0.6667    1.8066 H         1 <0>         0.0826
     40 H5         -2.3923   -1.2377   -0.1241 H         1 <0>         0.1449
     41 H6         -1.2029   -3.5031   -0.9517 H         1 <0>         0.1508
     42 H7          2.3115    0.5760    0.1965 H         1 <0>         0.1248
     43 H8          1.7247    2.1748   -1.5804 H         1 <0>         0.1299
     44 H9          4.1920   -1.9509   -2.6788 H         1 <0>         0.1293
     45 H10         5.1841   -1.7779   -4.3779 H         1 <0>         0.0515
     46 H11         3.5916   -2.4766   -4.7573 H         1 <0>         0.0583
     47 H12         4.5677   -1.7336   -6.0471 H         1 <0>         0.0977
     48 H13         0.6417    2.7832   -3.2668 H         1 <0>         0.0520
     49 H14         2.1839    3.6342   -3.0108 H         1 <0>         0.0518
     50 H15         1.3928    3.6857   -4.6045 H         1 <0>         0.0948
     51 H16         5.7079    3.0724    1.1635 H         1 <0>         0.1400
     52 H17         7.6954    4.4062    1.5936 H         1 <0>         0.1396
     53 H18        10.1883    0.9916    1.0355 H         1 <0>         0.1394
@<TRIPOS>BOND
     1    1    2 1
     2    1   37 1
     3    1   38 1
     4    1   39 1
     5    2    6 1
     6    2    3 2
     7    3    4 1
     8    3   40 1
     9    4    5 2
    10    4   41 1
    11    5    6 1
    12    5    7 1
    13    7    8 2
    14    7    9 1
    15    9   14 1
    16    9   10 2
    17   10   11 1
    18   10   36 1
    19   11   12 2
    20   11   13 am
    21   13   14 1
    22   13   26 1
    23   14   15 1
    24   14   16 1
    25   16   21 ar
    26   16   17 ar
    27   17   18 ar
    28   17   42 1
    29   18   19 ar
    30   18   43 1
    31   19   20 ar
    32   19   24 1
    33   20   21 ar
    34   20   22 1
    35   21   44 1
    36   22   23 1
    37   23   45 1
    38   23   46 1
    39   23   47 1
    40   24   25 1
    41   25   48 1
    42   25   49 1
    43   25   50 1
    44   26   34 1
    45   26   27 2
    46   27   28 1
    47   28   33 ar
    48   28   29 ar
    49   29   30 ar
    50   29   51 1
    51   30   31 ar
    52   30   52 1
    53   31   32 ar
    54   31   35 1
    55   32   33 ar
    56   32   53 1
    57   33   34 1
@<TRIPOS>MOLECULE
ZINC00702394
   57    61     0     0     0
SMALL
USER_CHARGES

@<TRIPOS>ATOM
      1 C1          4.3387   -0.7761   -1.4796 C.3       1 <0>        -0.1142
      2 C2          3.2103   -1.6997   -1.0991 C.ar      1 <0>        -0.0731
      3 C3          2.1304   -1.8550   -1.9506 C.ar      1 <0>        -0.1366
      4 C4          1.0943   -2.6987   -1.6085 C.ar      1 <0>        -0.0677
      5 C5          1.1368   -3.3973   -0.4000 C.ar      1 <0>        -0.1439
      6 C6          2.2298   -3.2361    0.4542 C.ar      1 <0>        -0.0633
      7 C7          3.2614   -2.3929    0.0976 C.ar      1 <0>        -0.1370
      8 C8          0.0295   -4.3031   -0.0265 C.2       1 <0>         0.5070
      9 C9          0.1166   -5.0997    1.2006 C.2       1 <0>        -0.4876
     10 C10         0.1062   -4.5760    2.6178 C.3       1 <0>         0.2629
     11 H1          0.9552   -3.9114    2.7780 H         1 <0>         0.0936
     12 N1          0.2144   -5.7519    3.4892 N.am      1 <0>        -0.5070
     13 C11         0.2815   -6.8432    2.7052 C.2       1 <0>         0.5133
     14 O1          0.3767   -7.9857    3.1073 O.2       1 <0>        -0.4817
     15 C12         0.2160   -6.4478    1.2833 C.2       1 <0>         0.2735
     16 O2          0.2524   -7.2971    0.2309 O.3       1 <0>        -0.6316
     17 C13         0.2429   -5.7403    4.8725 C.2       1 <0>         0.4092
     18 N2          0.1762   -4.7142    5.6890 N.2       1 <0>        -0.5462
     19 C14         0.2153   -4.8514    7.0316 C.ar      1 <0>         0.1135
     20 C15         0.1534   -3.8371    8.0153 C.ar      1 <0>        -0.0714
     21 C16         0.2075   -4.1502    9.3481 C.ar      1 <0>        -0.1064
     22 C17         0.3243   -5.4636    9.7804 C.ar      1 <0>        -0.0859
     23 C18         0.3870   -6.4810    8.8461 C.ar      1 <0>        -0.0566
     24 C19         0.3334   -6.1770    7.5087 C.ar      1 <0>        -0.1717
     25 S1          0.3721   -7.1188    6.0027 S.3       1 <0>         0.0480
     26 C20         0.3825   -5.7779   11.2531 C.3       1 <0>        -0.1076
     27 C21        -1.1834   -3.8456    2.8909 C.ar      1 <0>        -0.0223
     28 C22        -2.3169   -4.5573    3.2417 C.ar      1 <0>        -0.1090
     29 C23        -3.5007   -3.8951    3.4930 C.ar      1 <0>        -0.0474
     30 C24        -3.5532   -2.5034    3.3928 C.ar      1 <0>        -0.1391
     31 C25        -2.4055   -1.7915    3.0383 C.ar      1 <0>        -0.0566
     32 C26        -1.2270   -2.4659    2.7952 C.ar      1 <0>        -0.1183
     33 C27        -4.8175   -1.7875    3.6600 C.2       1 <0>         0.5128
     34 O3         -5.8144   -2.4096    3.9678 O.2       1 <0>        -0.5101
     35 O4         -4.8648   -0.4447    3.5624 O.3       1 <0>        -0.3504
     36 C28        -6.1200    0.1817    3.8346 C.3       1 <0>         0.0352
     37 O5         -0.9541   -4.3871   -0.7378 O.2       1 <0>        -0.4633
     38 H2          5.0887   -1.3316   -2.0426 H         1 <0>         0.0695
     39 H3          3.9515    0.0367   -2.0941 H         1 <0>         0.0646
     40 H4          4.7920   -0.3653   -0.5775 H         1 <0>         0.0652
     41 H5          2.0988   -1.3142   -2.8849 H         1 <0>         0.1214
     42 H6          0.2518   -2.8185   -2.2736 H         1 <0>         0.1298
     43 H7          2.2688   -3.7732    1.3904 H         1 <0>         0.1312
     44 H8          4.1091   -2.2705    0.7554 H         1 <0>         0.1221
     45 H9          0.0627   -2.8043    7.7126 H         1 <0>         0.1300
     46 H10         0.1586   -3.3566   10.0790 H         1 <0>         0.1286
     47 H11         0.4782   -7.5083    9.1667 H         1 <0>         0.1286
     48 H12        -0.6274   -5.9372   11.6309 H         1 <0>         0.0709
     49 H13         0.9752   -6.6793   11.4090 H         1 <0>         0.0666
     50 H14         0.8420   -4.9445   11.7846 H         1 <0>         0.0677
     51 H15        -2.2750   -5.6337    3.3185 H         1 <0>         0.1208
     52 H16        -4.3848   -4.4518    3.7664 H         1 <0>         0.1331
     53 H17        -2.4395   -0.7149    2.9586 H         1 <0>         0.1361
     54 H18        -0.3375   -1.9162    2.5252 H         1 <0>         0.1314
     55 H19        -6.8702   -0.1893    3.1364 H         1 <0>         0.0597
     56 H20        -6.4274   -0.0488    4.8546 H         1 <0>         0.0590
     57 H21        -6.0197    1.2611    3.7205 H         1 <0>         0.1010
@<TRIPOS>BOND
     1    1    2 1
     2    1   38 1
     3    1   39 1
     4    1   40 1
     5    2    7 ar
     6    2    3 ar
     7    3    4 ar
     8    3   41 1
     9    4    5 ar
    10    4   42 1
    11    5    6 ar
    12    5    8 1
    13    6    7 ar
    14    6   43 1
    15    7   44 1
    16    8    9 1
    17    8   37 2
    18    9   15 2
    19    9   10 1
    20   10   12 1
    21   10   27 1
    22   10   11 1
    23   12   17 1
    24   12   13 am
    25   13   14 2
    26   13   15 1
    27   15   16 1
    28   17   25 1
    29   17   18 2
    30   18   19 1
    31   19   24 ar
    32   19   20 ar
    33   20   21 ar
    34   20   45 1
    35   21   22 ar
    36   21   46 1
    37   22   23 ar
    38   22   26 1
    39   23   24 ar
    40   23   47 1
    41   24   25 1
    42   26   48 1
    43   26   49 1
    44   26   50 1
    45   27   32 ar
    46   27   28 ar
    47   28   29 ar
    48   28   51 1
    49   29   30 ar
    50   29   52 1
    51   30   31 ar
    52   30   33 1
    53   31   32 ar
    54   31   53 1
    55   32   54 1
    56   33   34 2
    57   33   35 1
    58   35   36 1
    59   36   55 1
    60   36   56 1
    61   36   57 1
@<TRIPOS>MOLECULE
ZINC59135137
   50    53     0     0     0
SMALL
USER_CHARGES

@<TRIPOS>ATOM
      1 C1          0.5203    1.3590    1.2712 C.3       1 <0>        -0.1158
      2 C2          0.5722   -0.1446    1.1851 C.ar      1 <0>        -0.0794
      3 C3         -0.2107   -0.8114    0.2614 C.ar      1 <0>        -0.1246
      4 C4         -0.1631   -2.1907    0.1824 C.ar      1 <0>        -0.0880
      5 C5          0.6677   -2.9031    1.0268 C.ar      1 <0>        -0.0965
      6 C6          1.4513   -2.2362    1.9500 C.ar      1 <0>        -0.0897
      7 C7          1.4069   -0.8567    2.0261 C.ar      1 <0>        -0.1259
      8 C8          0.7188   -4.4068    0.9414 C.3       1 <0>         0.0982
      9 O1          1.7288   -4.7968    0.0087 O.3       1 <0>        -0.2955
     10 C9          1.9055   -6.1273   -0.1870 C.ar      1 <0>         0.1787
     11 C10         1.1145   -7.0404    0.5043 C.ar      1 <0>        -0.2241
     12 C11         1.2871   -8.3809    0.3120 C.ar      1 <0>         0.0671
     13 C12         2.2654   -8.8383   -0.5857 C.ar      1 <0>        -0.1169
     14 C13         3.0602   -7.9124   -1.2802 C.ar      1 <0>        -0.0221
     15 C14         2.8736   -6.5736   -1.0830 C.ar      1 <0>        -0.1462
     16 Br1         3.9369   -5.3241   -2.0232 Br        1 <0>        -0.0526
     17 C15         2.4556  -10.2718   -0.7958 C.2       1 <0>         0.0681
     18 C16         1.3561  -11.1032   -0.9373 C.2       1 <0>        -0.2538
     19 C17         0.0060  -10.5618   -1.1593 C.2       1 <0>         0.4947
     20 O2         -0.2005   -9.2301   -1.2319 O.3       1 <0>        -0.6176
     21 N1         -0.9999  -11.4101   -1.2866 N.2       1 <0>        -0.6573
     22 C18        -0.8261  -12.7279   -1.2199 C.2       1 <0>         0.6684
     23 O3         -1.8031  -13.4443   -1.3468 O.2       1 <0>        -0.5599
     24 N2          0.3652  -13.3105   -1.0213 N.am      1 <0>        -0.5514
     25 C19         1.4871  -12.5726   -0.8783 C.2       1 <0>         0.5674
     26 O4          2.5691  -13.1009   -0.7025 O.2       1 <0>        -0.5166
     27 C20         0.4482  -14.7090   -0.9664 C.ar      1 <0>         0.1446
     28 C21         0.4212  -15.3593    0.2599 C.ar      1 <0>        -0.0737
     29 C22         0.5025  -16.7370    0.3119 C.ar      1 <0>        -0.1448
     30 C23         0.6114  -17.4697   -0.8581 C.ar      1 <0>         0.0944
     31 C24         0.6384  -16.8229   -2.0823 C.ar      1 <0>        -0.1445
     32 C25         0.5516  -15.4456   -2.1386 C.ar      1 <0>        -0.0716
     33 F1          0.6917  -18.8173   -0.8053 F         1 <0>        -0.1423
     34 H1          1.2630    1.7874    0.5982 H         1 <0>         0.0710
     35 H2         -0.4726    1.7054    0.9844 H         1 <0>         0.0664
     36 H3          0.7330    1.6720    2.2935 H         1 <0>         0.0660
     37 H4         -0.8597   -0.2548   -0.3984 H         1 <0>         0.1237
     38 H5         -0.7752   -2.7117   -0.5389 H         1 <0>         0.1262
     39 H6          2.1001   -2.7929    2.6100 H         1 <0>         0.1243
     40 H7          2.0218   -0.3354    2.7448 H         1 <0>         0.1229
     41 H8          0.9524   -4.8188    1.9232 H         1 <0>         0.0733
     42 H9         -0.2480   -4.7850    0.6093 H         1 <0>         0.0765
     43 H10         0.3627   -6.6876    1.1947 H         1 <0>         0.1328
     44 H11         0.6729   -9.0882    0.8495 H         1 <0>         0.1282
     45 H12         3.8142   -8.2578   -1.9720 H         1 <0>         0.1361
     46 H13         3.4532  -10.6833   -0.8407 H         1 <0>         0.1404
     47 H14         0.3370  -14.7881    1.1726 H         1 <0>         0.1321
     48 H15         0.4816  -17.2432    1.2656 H         1 <0>         0.1384
     49 H16         0.7234  -17.3960   -2.9937 H         1 <0>         0.1386
     50 H17         0.5685  -14.9417   -3.0937 H         1 <0>         0.1327
@<TRIPOS>BOND
     1    1    2 1
     2    1   34 1
     3    1   35 1
     4    1   36 1
     5    2    7 ar
     6    2    3 ar
     7    3    4 ar
     8    3   37 1
     9    4    5 ar
    10    4   38 1
    11    5    6 ar
    12    5    8 1
    13    6    7 ar
    14    6   39 1
    15    7   40 1
    16    8    9 1
    17    8   41 1
    18    8   42 1
    19    9   10 1
    20   10   15 ar
    21   10   11 ar
    22   11   12 ar
    23   11   43 1
    24   12   13 ar
    25   12   44 1
    26   13   14 ar
    27   13   17 1
    28   14   15 ar
    29   14   45 1
    30   15   16 1
    31   17   18 2
    32   17   46 1
    33   18   25 1
    34   18   19 1
    35   19   20 1
    36   19   21 2
    37   21   22 1
    38   22   23 2
    39   22   24 am
    40   24   25 am
    41   24   27 1
    42   25   26 2
    43   27   32 ar
    44   27   28 ar
    45   28   29 ar
    46   28   47 1
    47   29   30 ar
    48   29   48 1
    49   30   31 ar
    50   30   33 1
    51   31   32 ar
    52   31   49 1
    53   32   50 1
@<TRIPOS>MOLECULE
ZINC64557888
   57    60     0     0     0
SMALL
USER_CHARGES

@<TRIPOS>ATOM
      1 C1         -0.0187    1.5258    0.0104 C.3       1 <0>        -0.1521
      2 C2          0.0021   -0.0041    0.0020 C.3       1 <0>         0.0614
      3 O1          0.6932   -0.4774    1.1597 O.3       1 <0>        -0.3503
      4 C3          0.8011   -1.8128    1.3044 C.2       1 <0>         0.5167
      5 O2          0.3214   -2.5550    0.4705 O.2       1 <0>        -0.5164
      6 C4          1.5012   -2.3734    2.4748 C.ar      1 <0>        -0.1758
      7 C5          2.0487   -1.5210    3.4383 C.ar      1 <0>        -0.0265
      8 C6          2.7016   -2.0476    4.5295 C.ar      1 <0>        -0.1815
      9 C7          2.8170   -3.4270    4.6745 C.ar      1 <0>         0.2360
     10 C8          2.2732   -4.2785    3.7173 C.ar      1 <0>        -0.1739
     11 C9          1.6140   -3.7587    2.6265 C.ar      1 <0>        -0.0187
     12 N1          3.4789   -3.9566    5.7799 N.am      1 <0>        -0.5457
     13 C10         3.6863   -5.3816    6.0679 C.3       1 <0>         0.2744
     14 H1          4.2688   -5.8449    5.2716 H         1 <0>         0.0927
     15 C11         4.4505   -5.4343    7.3703 C.2       1 <0>        -0.9492
     16 C12         4.6442   -4.1740    7.7596 C.2       1 <0>         0.3256
     17 C13         4.0506   -3.2559    6.7770 C.2       1 <0>         0.5127
     18 O3          4.0705   -2.0426    6.8549 O.2       1 <0>        -0.4959
     19 O4          5.2966   -3.7953    8.8911 O.3       1 <0>        -0.5952
     20 S1          4.9839   -6.8859    8.2146 S.o2      1 <0>         2.6197
     21 O5          5.6286   -7.7041    7.2481 O.2       1 <0>        -0.9743
     22 O6          5.6351   -6.4501    9.4001 O.2       1 <0>        -0.9390
     23 C14         3.5374   -7.7532    8.7245 C.ar      1 <0>        -0.6474
     24 C15         2.9699   -7.4866    9.9565 C.ar      1 <0>        -0.0158
     25 C16         1.8350   -8.1671   10.3565 C.ar      1 <0>        -0.1455
     26 C17         1.2674   -9.1138    9.5243 C.ar      1 <0>        -0.0696
     27 C18         1.8344   -9.3797    8.2920 C.ar      1 <0>        -0.1405
     28 C19         2.9668   -8.6962    7.8902 C.ar      1 <0>        -0.0161
     29 C20         2.3593   -6.0805    6.2141 C.ar      1 <0>        -0.0882
     30 C21         1.3084   -5.4405    6.8455 C.ar      1 <0>        -0.0698
     31 C22         0.0911   -6.0780    6.9816 C.ar      1 <0>        -0.0935
     32 C23        -0.0774   -7.3641    6.4828 C.ar      1 <0>        -0.0765
     33 C24         0.9807   -8.0039    5.8484 C.ar      1 <0>        -0.1240
     34 C25         2.1935   -7.3582    5.7114 C.ar      1 <0>        -0.0991
     35 S2         -1.6287   -8.1818    6.6546 S.3       1 <0>        -0.1290
     36 C26        -1.3642   -9.7947    5.8679 C.3       1 <0>        -0.1423
     37 H2          1.0039    1.9031    0.0027 H         1 <0>         0.0669
     38 H3         -0.5459    1.8868   -0.8726 H         1 <0>         0.0776
     39 H4         -0.5289    1.8773    0.9072 H         1 <0>         0.0668
     40 H5         -1.0205   -0.3814    0.0098 H         1 <0>         0.0661
     41 H6          0.5123   -0.3556   -0.8948 H         1 <0>         0.0661
     42 H7          1.9598   -0.4505    3.3263 H         1 <0>         0.1385
     43 H8          3.1251   -1.3897    5.2740 H         1 <0>         0.1605
     44 H9          2.3646   -5.3484    3.8328 H         1 <0>         0.1375
     45 H10         1.1880   -4.4201    1.8866 H         1 <0>         0.1373
     46 H11         3.4133   -6.7470   10.6066 H         1 <0>         0.1373
     47 H12         1.3920   -7.9593   11.3193 H         1 <0>         0.1233
     48 H13         0.3812   -9.6459    9.8371 H         1 <0>         0.1196
     49 H14         1.3912  -10.1196    7.6420 H         1 <0>         0.1165
     50 H15         3.4076   -8.9013    6.9258 H         1 <0>         0.1342
     51 H16         1.4400   -4.4410    7.2329 H         1 <0>         0.1194
     52 H17        -0.7289   -5.5778    7.4754 H         1 <0>         0.1218
     53 H18         0.8533   -9.0034    5.4595 H         1 <0>         0.1214
     54 H19         3.0151   -7.8533    5.2150 H         1 <0>         0.1323
     55 H20        -1.0905   -9.6488    4.8230 H         1 <0>         0.0824
     56 H21        -0.5621  -10.3231    6.3832 H         1 <0>         0.0822
     57 H22        -2.2811  -10.3814    5.9247 H         1 <0>         0.1046
@<TRIPOS>BOND
     1    1    2 1
     2    1   37 1
     3    1   38 1
     4    1   39 1
     5    2    3 1
     6    2   40 1
     7    2   41 1
     8    3    4 1
     9    4    5 2
    10    4    6 1
    11    6   11 ar
    12    6    7 ar
    13    7    8 ar
    14    7   42 1
    15    8    9 ar
    16    8   43 1
    17    9   10 ar
    18    9   12 1
    19   10   11 ar
    20   10   44 1
    21   11   45 1
    22   12   17 am
    23   12   13 1
    24   13   14 1
    25   13   15 1
    26   13   29 1
    27   15   16 2
    28   15   20 1
    29   16   17 1
    30   16   19 1
    31   17   18 2
    32   20   21 2
    33   20   22 2
    34   20   23 1
    35   23   28 ar
    36   23   24 ar
    37   24   25 ar
    38   24   46 1
    39   25   26 ar
    40   25   47 1
    41   26   27 ar
    42   26   48 1
    43   27   28 ar
    44   27   49 1
    45   28   50 1
    46   29   34 ar
    47   29   30 ar
    48   30   31 ar
    49   30   51 1
    50   31   32 ar
    51   31   52 1
    52   32   33 ar
    53   32   35 1
    54   33   34 ar
    55   33   53 1
    56   34   54 1
    57   35   36 1
    58   36   55 1
    59   36   56 1
    60   36   57 1
@<TRIPOS>MOLECULE
ZINC09018787
   66    69     0     0     0
SMALL
USER_CHARGES
ethyl 9-[2-[(3-oxo-5-tert-butyl-2,6,8,9-tetrazabicyclo[4.3.0]nona-4,7,9-trien-7-yl)sulfanyl]propanoylamino]-8-thiabicyclo[5.3.0]deca-9,11-diene-10-carboxylate
@<TRIPOS>ATOM
      1 C1         -5.5592    3.6708   -6.6082 C.3       1 <0>        -0.1532
      2 C2         -4.8671    4.8566   -5.9332 C.3       1 <0>         0.0578
      3 O1         -3.4762    4.9048   -6.3470 O.3       1 <0>        -0.3501
      4 C3         -2.7199    5.8990   -5.8381 C.2       1 <0>         0.5295
      5 O2         -3.2106    6.7037   -5.0691 O.2       1 <0>        -0.4929
      6 C4         -1.3083    6.0097   -6.2113 C.2       1 <0>        -0.2025
      7 C5         -0.8928    6.7995   -7.3631 C.2       1 <0>        -0.0586
      8 C6          0.4362    6.8040   -7.6006 C.2       1 <0>        -0.1981
      9 S1          1.1324    5.7976   -6.3188 S.3       1 <0>         0.2440
     10 C7         -0.3201    5.3690   -5.4787 C.2       1 <0>         0.0751
     11 N1         -0.4613    4.5743   -4.3519 N.am      1 <0>        -0.6123
     12 C8          0.6256    4.0258   -3.7736 C.2       1 <0>         0.5404
     13 O3          1.7271    4.2277   -4.2391 O.2       1 <0>        -0.4815
     14 C9          0.4720    3.1617   -2.5485 C.3       1 <0>        -0.1584
     15 H1         -0.3407    3.5462   -1.9322 H         1 <0>         0.1284
     16 C10         0.1550    1.7265   -2.9732 C.3       1 <0>        -0.1459
     17 S2          2.0157    3.1835   -1.5959 S.3       1 <0>         0.1518
     18 C11         1.6328    2.2633   -0.1429 C.2       1 <0>         0.1882
     19 N2          0.4782    1.7094    0.1365 N.2       1 <0>        -0.2705
     20 N3          0.5889    1.0747    1.3803 N.2       1 <0>        -0.3097
     21 C12         1.8085    1.2596    1.8244 C.2       1 <0>         0.4621
     22 N4          2.4911    1.9962    0.8903 N.pl3     1 <0>        -0.4411
     23 C13         3.8046    2.3435    1.1079 C.2       1 <0>         0.1859
     24 C14         4.4295    1.9525    2.2327 C.2       1 <0>        -0.2363
     25 C15         3.7317    1.1859    3.1994 C.2       1 <0>         0.5566
     26 O4          4.2942    0.8303    4.2195 O.2       1 <0>        -0.4990
     27 N5          2.4429    0.8521    2.9859 N.am      1 <0>        -0.6123
     28 H2          1.9613    0.3273    3.6443 H         1 <0>         0.4382
     29 C16         4.5468    3.1581    0.0801 C.3       1 <0>        -0.0405
     30 C17         5.9791    3.4017    0.5597 C.3       1 <0>        -0.1456
     31 C18         4.5759    2.3993   -1.2482 C.3       1 <0>        -0.1643
     32 C19         3.8390    4.5005   -0.1149 C.3       1 <0>        -0.1644
     33 C20         1.1648    7.4935   -8.7115 C.3       1 <0>        -0.0389
     34 C21         0.6911    8.9504   -8.8009 C.3       1 <0>        -0.1158
     35 C22        -0.5056    9.0111   -9.7450 C.3       1 <0>        -0.1225
     36 C23        -1.3227    7.7249   -9.6414 C.3       1 <0>        -0.1236
     37 C24        -1.8837    7.5629   -8.2330 C.3       1 <0>        -0.0599
     38 H3         -6.6034    3.6346   -6.2975 H         1 <0>         0.0823
     39 H4         -5.5061    3.7872   -7.6907 H         1 <0>         0.0682
     40 H5         -5.0613    2.7458   -6.3173 H         1 <0>         0.0671
     41 H6         -4.9202    4.7403   -4.8507 H         1 <0>         0.0708
     42 H7         -5.3650    5.7816   -6.2240 H         1 <0>         0.0723
     43 H8         -1.3423    4.4128   -3.9796 H         1 <0>         0.4220
     44 H9          0.9677    1.3420   -3.5895 H         1 <0>         0.0780
     45 H10         0.0440    1.1015   -2.0872 H         1 <0>         0.0904
     46 H11        -0.7725    1.7134   -3.5456 H         1 <0>         0.0744
     47 H12         5.4618    2.2226    2.3994 H         1 <0>         0.1901
     48 H13         6.4834    2.4454    0.6986 H         1 <0>         0.0702
     49 H14         6.5160    3.9910   -0.1837 H         1 <0>         0.0799
     50 H15         5.9584    3.9424    1.5060 H         1 <0>         0.0698
     51 H16         3.6235    1.8903   -1.3967 H         1 <0>         0.0743
     52 H17         4.7436    3.1019   -2.0644 H         1 <0>         0.0872
     53 H18         5.3812    1.6650   -1.2295 H         1 <0>         0.0754
     54 H19         4.1556    5.1946    0.6636 H         1 <0>         0.0763
     55 H20         4.0967    4.9086   -1.0922 H         1 <0>         0.0866
     56 H21         2.7605    4.3546   -0.0550 H         1 <0>         0.0719
     57 H22         2.2364    7.4708   -8.5131 H         1 <0>         0.0770
     58 H23         0.9577    6.9852   -9.6532 H         1 <0>         0.0923
     59 H24         0.3965    9.3018   -7.8120 H         1 <0>         0.0682
     60 H25         1.4961    9.5750   -9.1881 H         1 <0>         0.0726
     61 H26        -1.1339    9.8609   -9.4780 H         1 <0>         0.0644
     62 H27        -0.1522    9.1332  -10.7689 H         1 <0>         0.0660
     63 H28        -2.1457    7.7622  -10.3552 H         1 <0>         0.0678
     64 H29        -0.6847    6.8727   -9.8755 H         1 <0>         0.0754
     65 H30        -2.0628    8.5468   -7.7994 H         1 <0>         0.0807
     66 H31        -2.8227    7.0113   -8.2787 H         1 <0>         0.0684
@<TRIPOS>BOND
     1    1    2 1
     2    1   38 1
     3    1   39 1
     4    1   40 1
     5    2    3 1
     6    2   41 1
     7    2   42 1
     8    3    4 1
     9    4    5 2
    10    4    6 1
    11    6   10 2
    12    6    7 1
    13    7   37 1
    14    7    8 2
    15    8    9 1
    16    8   33 1
    17    9   10 1
    18   10   11 1
    19   11   12 am
    20   11   43 1
    21   12   13 2
    22   12   14 1
    23   14   15 1
    24   14   16 1
    25   14   17 1
    26   16   44 1
    27   16   45 1
    28   16   46 1
    29   17   18 1
    30   18   22 1
    31   18   19 2
    32   19   20 1
    33   20   21 2
    34   21   27 1
    35   21   22 1
    36   22   23 1
    37   23   24 2
    38   23   29 1
    39   24   25 1
    40   24   47 1
    41   25   26 2
    42   25   27 am
    43   27   28 1
    44   29   30 1
    45   29   31 1
    46   29   32 1
    47   30   48 1
    48   30   49 1
    49   30   50 1
    50   31   51 1
    51   31   52 1
    52   31   53 1
    53   32   54 1
    54   32   55 1
    55   32   56 1
    56   33   34 1
    57   33   57 1
    58   33   58 1
    59   34   35 1
    60   34   59 1
    61   34   60 1
    62   35   36 1
    63   35   61 1
    64   35   62 1
    65   36   37 1
    66   36   63 1
    67   36   64 1
    68   37   65 1
    69   37   66 1
@<TRIPOS>MOLECULE
ZINC20702422
   67    71     0     0     0
SMALL
USER_CHARGES
[4-[(3aR,4S,9bS)-8-[(3,5-dimethylphenyl)sulfamoyl]-3a,4,5,9b-tetrahydro-3H-cyclopenta[c]quinolin-4-yl]-2-methoxy-phenyl] acetate
@<TRIPOS>ATOM
      1 C1          5.0035   -0.2997   -1.9175 C.3       1 <0>        -0.1202
      2 C2          4.2914    0.8778   -2.5318 C.ar      1 <0>        -0.0569
      3 C3          3.8858    0.8273   -3.8529 C.ar      1 <0>        -0.1316
      4 C4          3.2321    1.9056   -4.4205 C.ar      1 <0>        -0.0631
      5 C5          2.9821    3.0371   -3.6691 C.ar      1 <0>        -0.1378
      6 C6          3.3882    3.0912   -2.3418 C.ar      1 <0>         0.1609
      7 C7          4.0493    2.0083   -1.7763 C.ar      1 <0>        -0.1644
      8 N1          3.1374    4.2342   -1.5792 N.pl3     1 <0>        -1.0729
      9 S1          2.5214    4.0898   -0.0488 S.o2      1 <0>         2.6941
     10 O1          2.2910    5.4104    0.4225 O.2       1 <0>        -0.9581
     11 O2          3.3570    3.1699    0.6402 O.2       1 <0>        -0.9549
     12 C8          0.9412    3.3238   -0.1935 C.ar      1 <0>        -0.7228
     13 C9          0.8462    1.9449   -0.2421 C.ar      1 <0>         0.0261
     14 C10        -0.3934    1.3481   -0.3564 C.ar      1 <0>        -0.2102
     15 C11        -1.5384    2.1316   -0.4276 C.ar      1 <0>         0.2788
     16 C12        -1.4487    3.5140   -0.3715 C.ar      1 <0>        -0.1654
     17 C13        -0.1964    4.1023   -0.2573 C.ar      1 <0>         0.0239
     18 C14        -2.6537    4.3977   -0.4341 C.3       1 <0>        -0.0059
     19 H1         -2.4747    5.1190    0.3769 H         1 <0>         0.0969
     20 C15        -2.7830    5.0613   -1.7844 C.2       1 <0>        -0.1594
     21 C16        -4.0456    5.1593   -2.1226 C.2       1 <0>        -0.1660
     22 C17        -4.9324    4.5774   -1.0388 C.3       1 <0>        -0.0853
     23 C18        -3.9759    3.6247   -0.2631 C.3       1 <0>        -0.0865
     24 H2         -4.2403    3.3818    0.7767 H         1 <0>         0.1043
     25 C19        -3.9071    2.2981   -1.0250 C.3       1 <0>         0.1907
     26 H3         -4.8247    1.7073   -0.8871 H         1 <0>         0.1034
     27 N2         -2.7826    1.5111   -0.5079 N.pl3     1 <0>        -0.7469
     28 C20        -3.7034    2.5693   -2.4933 C.ar      1 <0>        -0.0391
     29 C21        -2.4228    2.6749   -3.0041 C.ar      1 <0>        -0.1283
     30 C22        -2.2305    2.9235   -4.3501 C.ar      1 <0>        -0.0802
     31 C23        -3.3227    3.0673   -5.1911 C.ar      1 <0>         0.0480
     32 C24        -4.6115    2.9606   -4.6771 C.ar      1 <0>         0.1339
     33 C25        -4.7970    2.7063   -3.3274 C.ar      1 <0>        -0.1870
     34 O3         -5.6862    3.1012   -5.4980 O.3       1 <0>        -0.3097
     35 C26        -6.9789    2.9792   -4.9011 C.3       1 <0>         0.0227
     36 O4         -3.1353    3.3124   -6.5156 O.3       1 <0>        -0.2852
     37 C27        -3.1507    4.5967   -6.9058 C.2       1 <0>         0.4553
     38 O5         -3.4165    5.4666   -6.1104 O.2       1 <0>        -0.4958
     39 C28        -2.8364    4.9536   -8.3358 C.3       1 <0>        -0.1489
     40 C29         2.7923    1.8461   -5.8607 C.3       1 <0>        -0.1184
     41 H4          5.1041   -1.0989   -2.6666 H         1 <0>         0.0670
     42 H5          4.4240   -0.6719   -1.0598 H         1 <0>         0.0735
     43 H6          6.0021    0.0122   -1.5778 H         1 <0>         0.0736
     44 H7          4.0803   -0.0562   -4.4428 H         1 <0>         0.1233
     45 H8          2.4718    3.8790   -4.1131 H         1 <0>         0.1251
     46 H9          4.3703    2.0488   -0.7459 H         1 <0>         0.1538
     47 H10         3.3491    5.2303   -1.9952 H         1 <0>         0.4521
     48 H11         1.7378    1.3377   -0.1906 H         1 <0>         0.1357
     49 H12        -0.4727    0.2717   -0.3950 H         1 <0>         0.1312
     50 H13        -0.1118    5.1783   -0.2177 H         1 <0>         0.1372
     51 H14        -2.0017    5.4401   -2.4598 H         1 <0>         0.1256
     52 H15        -4.3237    5.6173   -3.0833 H         1 <0>         0.1280
     53 H16        -5.3192    5.3898   -0.4061 H         1 <0>         0.0827
     54 H17        -5.7737    4.0412   -1.5020 H         1 <0>         0.0715
     55 H18        -2.9381    0.4668   -0.1991 H         1 <0>         0.4345
     56 H19        -1.5709    2.5631   -2.3498 H         1 <0>         0.1403
     57 H20        -1.2292    3.0062   -4.7463 H         1 <0>         0.1317
     58 H21        -5.7961    2.6193   -2.9266 H         1 <0>         0.1341
     59 H22        -7.7526    3.1134   -5.6714 H         1 <0>         0.1041
     60 H23        -7.0980    3.7485   -4.1239 H         1 <0>         0.0583
     61 H24        -7.0811    1.9818   -4.4485 H         1 <0>         0.0580
     62 H25        -2.8986    6.0444   -8.4636 H         1 <0>         0.1050
     63 H26        -3.5608    4.4643   -9.0035 H         1 <0>         0.1036
     64 H27        -1.8205    4.6126   -8.5840 H         1 <0>         0.1029
     65 H28         2.2939    2.7887   -6.1311 H         1 <0>         0.0650
     66 H29         2.0917    1.0089   -5.9958 H         1 <0>         0.0717
     67 H30         3.6704    1.6973   -6.5063 H         1 <0>         0.0722
@<TRIPOS>BOND
     1    1    2 1
     2    1   41 1
     3    1   42 1
     4    1   43 1
     5    2    7 ar
     6    2    3 ar
     7    3    4 ar
     8    3   44 1
     9    4    5 ar
    10    4   40 1
    11    5    6 ar
    12    5   45 1
    13    6    7 ar
    14    6    8 1
    15    7   46 1
    16    8    9 1
    17    8   47 1
    18    9   10 2
    19    9   11 2
    20    9   12 1
    21   12   17 ar
    22   12   13 ar
    23   13   14 ar
    24   13   48 1
    25   14   15 ar
    26   14   49 1
    27   15   27 1
    28   15   16 ar
    29   16   17 ar
    30   16   18 1
    31   17   50 1
    32   18   19 1
    33   18   23 1
    34   18   20 1
    35   20   21 2
    36   20   51 1
    37   21   22 1
    38   21   52 1
    39   22   23 1
    40   22   53 1
    41   22   54 1
    42   23   24 1
    43   23   25 1
    44   25   26 1
    45   25   27 1
    46   25   28 1
    47   27   55 1
    48   28   33 ar
    49   28   29 ar
    50   29   30 ar
    51   29   56 1
    52   30   31 ar
    53   30   57 1
    54   31   32 ar
    55   31   36 1
    56   32   33 ar
    57   32   34 1
    58   33   58 1
    59   34   35 1
    60   35   59 1
    61   35   60 1
    62   35   61 1
    63   36   37 1
    64   37   38 2
    65   37   39 1
    66   39   62 1
    67   39   63 1
    68   39   64 1
    69   40   65 1
    70   40   66 1
    71   40   67 1
@<TRIPOS>MOLECULE
ZINC36013484
   73    76     0     0     0
SMALL
USER_CHARGES

@<TRIPOS>ATOM
      1 C1          3.0299   -7.3560    3.9692 C.3       1 <0>        -0.1506
      2 C2          2.5606   -5.9207    3.7232 C.3       1 <0>        -0.1392
      3 C3          1.0707   -5.8077    4.0525 C.3       1 <0>         0.1178
      4 N1          0.6214   -4.4334    3.8169 N.am      1 <0>        -0.5898
      5 C4          0.2044   -4.0189    2.4751 C.3       1 <0>         0.0868
      6 C5         -1.2417   -4.3857    2.2627 C.2       1 <0>         0.4895
      7 O1         -1.8630   -4.9390    3.1454 O.2       1 <0>        -0.5074
      8 N2         -1.8447   -4.0990    1.0919 N.am      1 <0>        -0.6665
      9 C6         -3.1552   -4.5350    0.8534 C.ar      1 <0>         0.0828
     10 C7         -4.0125   -3.7655    0.0783 C.ar      1 <0>        -0.0901
     11 C8         -5.3033   -4.1950   -0.1572 C.ar      1 <0>        -0.1806
     12 C9         -5.7443   -5.3969    0.3814 C.ar      1 <0>         0.2102
     13 C10        -4.8866   -6.1665    1.1567 C.ar      1 <0>        -0.1780
     14 C11        -3.5942   -5.7392    1.3875 C.ar      1 <0>        -0.0651
     15 N3         -7.0523   -5.8321    0.1433 N.pl3     1 <0>        -0.6285
     16 C12        -7.5748   -7.0319    0.8121 C.3       1 <0>         0.1068
     17 C13        -8.8639   -6.6572    1.5540 C.3       1 <0>         0.1135
     18 N4         -9.7402   -5.9225    0.6309 N.am      1 <0>        -0.6240
     19 C14        -9.2177   -4.7227   -0.0379 C.3       1 <0>         0.0935
     20 C15        -7.9305   -5.0942   -0.7754 C.3       1 <0>         0.1071
     21 C16       -11.0004   -6.3418    0.4016 C.2       1 <0>         0.7084
     22 O2        -11.4534   -7.2785    1.0305 O.2       1 <0>        -0.5663
     23 N5        -11.7585   -5.7226   -0.5250 N.am      1 <0>        -0.6862
     24 C17       -13.0987   -6.0895   -0.6914 C.ar      1 <0>         0.1671
     25 C18       -13.8461   -6.5095    0.4012 C.ar      1 <0>        -0.1264
     26 C19       -15.1685   -6.8704    0.2338 C.ar      1 <0>        -0.0949
     27 C20       -15.7486   -6.8143   -1.0204 C.ar      1 <0>        -0.1374
     28 C21       -15.0072   -6.3970   -2.1102 C.ar      1 <0>        -0.0659
     29 C22       -13.6857   -6.0288   -1.9483 C.ar      1 <0>        -0.1503
     30 C23       -15.6430   -6.3383   -3.4753 C.3       1 <0>        -0.1150
     31 C24         0.5916   -3.5503    4.8347 C.2       1 <0>         0.5706
     32 O3          1.0434   -3.8586    5.9203 O.2       1 <0>        -0.5164
     33 C25         0.0097   -2.2079    4.6310 C.ar      1 <0>        -0.1447
     34 C26        -1.2545   -2.0723    4.0534 C.ar      1 <0>        -0.0713
     35 C27        -1.7926   -0.8173    3.8656 C.ar      1 <0>        -0.1556
     36 C28        -1.0809    0.3093    4.2485 C.ar      1 <0>         0.1225
     37 C29         0.1747    0.1805    4.8224 C.ar      1 <0>        -0.1565
     38 C30         0.7196   -1.0700    5.0205 C.ar      1 <0>        -0.0392
     39 F1         -1.6126    1.5371    4.0614 F         1 <0>        -0.1329
     40 H1          4.0913   -7.4365    3.7346 H         1 <0>         0.0589
     41 H2          2.8682   -7.6169    5.0151 H         1 <0>         0.0583
     42 H3          2.4645   -8.0372    3.3332 H         1 <0>         0.0556
     43 H4          3.1260   -5.2395    4.3592 H         1 <0>         0.0685
     44 H5          2.7223   -5.6598    2.6773 H         1 <0>         0.0622
     45 H6          0.5054   -6.4889    3.4165 H         1 <0>         0.0783
     46 H7          0.9090   -6.0686    5.0984 H         1 <0>         0.0907
     47 H8          0.3242   -2.9402    2.3744 H         1 <0>         0.1159
     48 H9          0.8204   -4.5239    1.7310 H         1 <0>         0.1173
     49 H10        -1.3717   -3.5909    0.4144 H         1 <0>         0.4103
     50 H11        -3.6697   -2.8307   -0.3402 H         1 <0>         0.1256
     51 H12        -5.9702   -3.5963   -0.7598 H         1 <0>         0.1268
     52 H13        -5.2293   -7.1011    1.5755 H         1 <0>         0.1266
     53 H14        -2.9258   -6.3397    1.9867 H         1 <0>         0.1332
     54 H15        -7.7902   -7.8001    0.0696 H         1 <0>         0.0688
     55 H16        -6.8380   -7.4040    1.5240 H         1 <0>         0.0983
     56 H17        -9.3669   -7.5626    1.8934 H         1 <0>         0.1066
     57 H18        -8.6233   -6.0267    2.4099 H         1 <0>         0.0744
     58 H19        -9.9545   -4.3506   -0.7498 H         1 <0>         0.0855
     59 H20        -9.0023   -3.9544    0.7047 H         1 <0>         0.0802
     60 H21        -7.4286   -4.1869   -1.1118 H         1 <0>         0.0980
     61 H22        -8.1718   -5.7213   -1.6337 H         1 <0>         0.0684
     62 H23       -11.3751   -5.0228   -1.0764 H         1 <0>         0.4045
     63 H24       -13.3934   -6.5542    1.3808 H         1 <0>         0.1347
     64 H25       -15.7502   -7.1971    1.0831 H         1 <0>         0.1260
     65 H26       -16.7829   -7.0974   -1.1489 H         1 <0>         0.1231
     66 H27       -13.1083   -5.6986   -2.7992 H         1 <0>         0.1232
     67 H28       -16.0842   -5.3534   -3.6285 H         1 <0>         0.0719
     68 H29       -14.8850   -6.5194   -4.2373 H         1 <0>         0.0660
     69 H30       -16.4198   -7.0996   -3.5473 H         1 <0>         0.0686
     70 H31        -1.8094   -2.9492    3.7541 H         1 <0>         0.1467
     71 H32        -2.7702   -0.7114    3.4190 H         1 <0>         0.1413
     72 H33         0.7250    1.0613    5.1186 H         1 <0>         0.1451
     73 H34         1.6956   -1.1695    5.4721 H         1 <0>         0.1426
@<TRIPOS>BOND
     1    1    2 1
     2    1   40 1
     3    1   41 1
     4    1   42 1
     5    2    3 1
     6    2   43 1
     7    2   44 1
     8    3    4 1
     9    3   45 1
    10    3   46 1
    11    4    5 1
    12    4   31 am
    13    5    6 1
    14    5   47 1
    15    5   48 1
    16    6    7 2
    17    6    8 am
    18    8    9 1
    19    8   49 1
    20    9   14 ar
    21    9   10 ar
    22   10   11 ar
    23   10   50 1
    24   11   12 ar
    25   11   51 1
    26   12   13 ar
    27   12   15 1
    28   13   14 ar
    29   13   52 1
    30   14   53 1
    31   15   20 1
    32   15   16 1
    33   16   17 1
    34   16   54 1
    35   16   55 1
    36   17   18 1
    37   17   56 1
    38   17   57 1
    39   18   19 1
    40   18   21 am
    41   19   20 1
    42   19   58 1
    43   19   59 1
    44   20   60 1
    45   20   61 1
    46   21   22 2
    47   21   23 am
    48   23   24 1
    49   23   62 1
    50   24   29 ar
    51   24   25 ar
    52   25   26 ar
    53   25   63 1
    54   26   27 ar
    55   26   64 1
    56   27   28 ar
    57   27   65 1
    58   28   29 ar
    59   28   30 1
    60   29   66 1
    61   30   67 1
    62   30   68 1
    63   30   69 1
    64   31   32 2
    65   31   33 1
    66   33   38 ar
    67   33   34 ar
    68   34   35 ar
    69   34   70 1
    70   35   36 ar
    71   35   71 1
    72   36   37 ar
    73   36   39 1
    74   37   38 ar
    75   37   72 1
    76   38   73 1
@<TRIPOS>MOLECULE
ZINC39974397
   68    71     0     0     0
SMALL
USER_CHARGES

@<TRIPOS>ATOM
      1 C1         -1.5988   -0.3488   -1.5850 C.3       1 <0>        -0.0584
      2 C2         -0.6963   -1.4500   -1.0910 C.2       1 <0>         0.1317
      3 C3          0.4560   -1.9195   -1.7382 C.2       1 <0>        -0.0208
      4 C4          0.9857   -2.9109   -0.9772 C.2       1 <0>         0.0940
      5 N1          0.1904   -3.0594    0.1141 N.pl3     1 <0>        -0.3603
      6 N2         -0.8508   -2.1274    0.0176 N.2       1 <0>        -0.2745
      7 C5          0.3897   -4.0200    1.2021 C.3       1 <0>         0.1812
      8 C6          1.2413   -3.3932    2.2759 C.ar      1 <0>        -0.1586
      9 C7          2.6084   -3.5969    2.2810 C.ar      1 <0>        -0.0727
     10 C8          3.3896   -3.0221    3.2658 C.ar      1 <0>        -0.1342
     11 C9          2.8047   -2.2428    4.2468 C.ar      1 <0>        -0.0763
     12 C10         1.4383   -2.0374    4.2435 C.ar      1 <0>        -0.1575
     13 C11         0.6553   -2.6084    3.2543 C.ar      1 <0>         0.1322
     14 F1         -0.6802   -2.4044    3.2474 F         1 <0>        -0.1256
     15 C12         2.2298   -3.7030   -1.2868 C.3       1 <0>        -0.0940
     16 N3          0.9714   -1.4468   -2.9600 N.pl3     1 <0>        -0.5867
     17 C13         1.0509   -0.1212   -3.1902 C.2       1 <0>         0.5341
     18 S1          0.5963    0.9885   -1.9683 S.2       1 <0>        -0.5661
     19 N4          1.4882    0.3308   -4.3822 N.pl3     1 <0>        -0.6413
     20 C14         1.4829    1.7028   -4.6547 C.ar      1 <0>         0.1840
     21 C15         1.9656    2.6014   -3.7121 C.ar      1 <0>        -0.0900
     22 C16         1.9590    3.9554   -3.9842 C.ar      1 <0>        -0.0171
     23 C17         1.4724    4.4167   -5.1936 C.ar      1 <0>        -0.6714
     24 C18         0.9911    3.5246   -6.1343 C.ar      1 <0>        -0.0186
     25 C19         1.0002    2.1689   -5.8707 C.ar      1 <0>        -0.1431
     26 S2          1.4652    6.1450   -5.5366 S.o2      1 <0>         2.6820
     27 O1          0.4569    6.3608   -6.5144 O.2       1 <0>        -0.9534
     28 O2          1.4622    6.8084   -4.2800 O.2       1 <0>        -0.9506
     29 N5          2.9105    6.5068   -6.2594 N.pl3     1 <0>        -0.9876
     30 C20         4.0742    6.8975   -5.4520 C.3       1 <0>         0.1513
     31 H1          4.8474    6.1335   -5.5317 H         1 <0>         0.0757
     32 C21         4.6139    8.2312   -5.9781 C.3       1 <0>        -0.1285
     33 C22         4.9018    8.1052   -7.4759 C.3       1 <0>        -0.1200
     34 C23         3.6049    7.7814   -8.2210 C.3       1 <0>        -0.1281
     35 C24         3.0553    6.4372   -7.7199 C.3       1 <0>         0.1510
     36 H2          3.7471    5.6363   -7.9807 H         1 <0>         0.0759
     37 C25         1.6910    6.1685   -8.3583 C.3       1 <0>        -0.1799
     38 C26         3.6546    7.0520   -3.9888 C.3       1 <0>        -0.1803
     39 H3         -1.3360    0.5859   -1.0898 H         1 <0>         0.1091
     40 H4         -1.4778   -0.2357   -2.6624 H         1 <0>         0.0608
     41 H5         -2.6353   -0.6002   -1.3602 H         1 <0>         0.0578
     42 H6         -0.5767   -4.2994    1.6217 H         1 <0>         0.1100
     43 H7          0.8886   -4.9086    0.8153 H         1 <0>         0.1078
     44 H8          3.0662   -4.2057    1.5155 H         1 <0>         0.1315
     45 H9          4.4577   -3.1821    3.2692 H         1 <0>         0.1328
     46 H10         3.4161   -1.7947    5.0161 H         1 <0>         0.1359
     47 H11         0.9817   -1.4289    5.0100 H         1 <0>         0.1391
     48 H12         3.0961   -3.2026   -0.8542 H         1 <0>         0.0857
     49 H13         2.1387   -4.7031   -0.8629 H         1 <0>         0.0777
     50 H14         2.3544   -3.7763   -2.3672 H         1 <0>         0.0798
     51 H15         1.2693   -2.0752   -3.6363 H         1 <0>         0.4031
     52 H16         1.8066   -0.2953   -5.0512 H         1 <0>         0.4087
     53 H17         2.3455    2.2417   -2.7672 H         1 <0>         0.1563
     54 H18         2.3339    4.6547   -3.2515 H         1 <0>         0.1453
     55 H19         0.6114    3.8881   -7.0777 H         1 <0>         0.1451
     56 H20         0.6287    1.4724   -6.6076 H         1 <0>         0.1342
     57 H21         3.8727    9.0135   -5.8147 H         1 <0>         0.0704
     58 H22         5.5336    8.4849   -5.4509 H         1 <0>         0.0762
     59 H23         5.3092    9.0454   -7.8477 H         1 <0>         0.0668
     60 H24         5.6246    7.3061   -7.6407 H         1 <0>         0.0637
     61 H25         2.8732    8.5679   -8.0364 H         1 <0>         0.0706
     62 H26         3.8064    7.7148   -9.2901 H         1 <0>         0.0755
     63 H27         1.0437    7.0327   -8.2093 H         1 <0>         0.0953
     64 H28         1.8184    5.9898   -9.4260 H         1 <0>         0.0656
     65 H29         1.2391    5.2918   -7.8945 H         1 <0>         0.0680
     66 H30         3.1168    6.1595   -3.6688 H         1 <0>         0.0713
     67 H31         4.5412    7.1839   -3.3686 H         1 <0>         0.0658
     68 H32         3.0069    7.9227   -3.8865 H         1 <0>         0.0925
@<TRIPOS>BOND
     1    1    2 1
     2    1   39 1
     3    1   40 1
     4    1   41 1
     5    2    6 2
     6    2    3 1
     7    3    4 2
     8    3   16 1
     9    4    5 1
    10    4   15 1
    11    5    6 1
    12    5    7 1
    13    7    8 1
    14    7   42 1
    15    7   43 1
    16    8   13 ar
    17    8    9 ar
    18    9   10 ar
    19    9   44 1
    20   10   11 ar
    21   10   45 1
    22   11   12 ar
    23   11   46 1
    24   12   13 ar
    25   12   47 1
    26   13   14 1
    27   15   48 1
    28   15   49 1
    29   15   50 1
    30   16   17 1
    31   16   51 1
    32   17   18 2
    33   17   19 1
    34   19   20 1
    35   19   52 1
    36   20   25 ar
    37   20   21 ar
    38   21   22 ar
    39   21   53 1
    40   22   23 ar
    41   22   54 1
    42   23   24 ar
    43   23   26 1
    44   24   25 ar
    45   24   55 1
    46   25   56 1
    47   26   27 2
    48   26   28 2
    49   26   29 1
    50   29   35 1
    51   29   30 1
    52   30   31 1
    53   30   32 1
    54   30   38 1
    55   32   33 1
    56   32   57 1
    57   32   58 1
    58   33   34 1
    59   33   59 1
    60   33   60 1
    61   34   35 1
    62   34   61 1
    63   34   62 1
    64   35   36 1
    65   35   37 1
    66   37   63 1
    67   37   64 1
    68   37   65 1
    69   38   66 1
    70   38   67 1
    71   38   68 1
@<TRIPOS>MOLECULE
ZINC59331437
   59    63     0     0     0
SMALL
USER_CHARGES

@<TRIPOS>ATOM
      1 C1          0.9414    0.8954   -2.8161 C.ar      1 <0>        -0.1328
      2 C2          1.9831    1.6801   -2.3522 C.ar      1 <0>        -0.0628
      3 C3          2.9016    1.1633   -1.4575 C.ar      1 <0>        -0.1565
      4 C4          2.7847   -0.1431   -1.0201 C.ar      1 <0>         0.1361
      5 C5          1.7344   -0.9399   -1.4850 C.ar      1 <0>        -0.0680
      6 C6          0.8118   -0.4092   -2.3884 C.ar      1 <0>        -0.0366
      7 C7          1.6020   -2.3370   -1.0233 C.2       1 <0>         0.2923
      8 N1          0.6614   -3.1661   -1.4002 N.2       1 <0>        -0.4618
      9 C8          0.8536   -4.3572   -0.7770 C.ar      1 <0>         0.0286
     10 C9          0.1734   -5.5769   -0.8000 C.ar      1 <0>        -0.0584
     11 C10         0.6316   -6.6307   -0.0307 C.ar      1 <0>         0.1235
     12 C11         1.7654   -6.4788    0.7645 C.ar      1 <0>        -0.0429
     13 C12         2.4425   -5.2782    0.7929 C.ar      1 <0>        -0.0845
     14 C13         1.9960   -4.2123    0.0268 C.ar      1 <0>         0.0276
     15 O1          2.4343   -2.9461   -0.1579 O.3       1 <0>        -0.1965
     16 N2         -0.0472   -7.8555   -0.0506 N.pl3     1 <0>        -0.6172
     17 C14         0.6437   -9.0071   -0.1632 C.2       1 <0>         0.5089
     18 S1          2.3555   -8.9809   -0.1730 S.2       1 <0>        -0.4651
     19 N3         -0.0129  -10.1794   -0.2681 N.am      1 <0>        -0.6378
     20 C15         0.6781  -11.3311   -0.3807 C.2       1 <0>         0.5392
     21 O2          1.8936  -11.3125   -0.3877 O.2       1 <0>        -0.3880
     22 C16        -0.0402  -12.6136   -0.4955 C.ar      1 <0>        -0.1429
     23 C17        -1.4384  -12.6362   -0.4935 C.ar      1 <0>        -0.0356
     24 C18        -2.1034  -13.8244   -0.6003 C.ar      1 <0>        -0.1317
     25 C19        -1.3934  -15.0169   -0.7116 C.ar      1 <0>         0.2823
     26 C20        -0.0011  -15.0040   -0.7144 C.ar      1 <0>        -0.0702
     27 C21         0.6752  -13.8094   -0.6124 C.ar      1 <0>         0.0145
     28 N4          0.7511  -16.2732   -0.8327 N.pl3     1 <0>         0.0355
     29 O3          1.9600  -16.2614   -0.8352 O.2       1 <0>        -0.1676
     30 O4          0.1566  -17.3217   -0.9269 O.3       1 <0>        -0.1231
     31 N5         -2.0761  -16.2232   -0.8195 N.pl3     1 <0>        -0.6780
     32 C22        -2.4449  -16.9847    0.3816 C.3       1 <0>         0.1454
     33 C23        -3.9489  -17.2728    0.3403 C.3       1 <0>        -0.1341
     34 C24        -4.2946  -17.9707   -0.9771 C.3       1 <0>        -0.1176
     35 C25        -3.9464  -17.0513   -2.1501 C.3       1 <0>        -0.1343
     36 C26        -2.4477  -16.7577   -2.1367 C.3       1 <0>         0.1455
     37 F1          3.6830   -0.6482   -0.1464 F         1 <0>        -0.1215
     38 H1          0.2254    1.3075   -3.5118 H         1 <0>         0.1427
     39 H2          2.0789    2.7010   -2.6912 H         1 <0>         0.1424
     40 H3          3.7121    1.7810   -1.0999 H         1 <0>         0.1470
     41 H4         -0.0021   -1.0193   -2.7516 H         1 <0>         0.1500
     42 H5         -0.7061   -5.6963   -1.4152 H         1 <0>         0.1416
     43 H6          2.1159   -7.3068    1.3628 H         1 <0>         0.1640
     44 H7          3.3205   -5.1679    1.4120 H         1 <0>         0.1466
     45 H8         -1.0147   -7.8749    0.0166 H         1 <0>         0.4108
     46 H9         -0.9828  -10.1943   -0.2626 H         1 <0>         0.4099
     47 H10        -1.9929  -11.7134   -0.4071 H         1 <0>         0.1412
     48 H11        -3.1833  -13.8390   -0.5982 H         1 <0>         0.1550
     49 H12         1.7551  -13.7961   -0.6185 H         1 <0>         0.1706
     50 H13        -1.8933  -17.9246    0.4021 H         1 <0>         0.0694
     51 H14        -2.2091  -16.4007    1.2713 H         1 <0>         0.0636
     52 H15        -4.2188  -17.9186    1.1758 H         1 <0>         0.0725
     53 H16        -4.5010  -16.3356    0.4113 H         1 <0>         0.0622
     54 H17        -3.7236  -18.8956   -1.0588 H         1 <0>         0.0669
     55 H18        -5.3602  -18.1989   -0.9985 H         1 <0>         0.0625
     56 H19        -4.2145  -17.5396   -3.0870 H         1 <0>         0.0729
     57 H20        -4.4985  -16.1162   -2.0556 H         1 <0>         0.0619
     58 H21        -2.2137  -16.0240   -2.9080 H         1 <0>         0.0634
     59 H22        -1.8963  -17.6787   -2.3261 H         1 <0>         0.0691
@<TRIPOS>BOND
     1    1    6 ar
     2    1    2 ar
     3    1   38 1
     4    2    3 ar
     5    2   39 1
     6    3    4 ar
     7    3   40 1
     8    4    5 ar
     9    4   37 1
    10    5    6 ar
    11    5    7 1
    12    6   41 1
    13    7   15 1
    14    7    8 2
    15    8    9 1
    16    9   14 ar
    17    9   10 ar
    18   10   11 ar
    19   10   42 1
    20   11   12 ar
    21   11   16 1
    22   12   13 ar
    23   12   43 1
    24   13   14 ar
    25   13   44 1
    26   14   15 1
    27   16   17 1
    28   16   45 1
    29   17   18 2
    30   17   19 1
    31   19   20 am
    32   19   46 1
    33   20   21 2
    34   20   22 1
    35   22   27 ar
    36   22   23 ar
    37   23   24 ar
    38   23   47 1
    39   24   25 ar
    40   24   48 1
    41   25   26 ar
    42   25   31 1
    43   26   27 ar
    44   26   28 1
    45   27   49 1
    46   28   29 2
    47   28   30 1
    48   31   36 1
    49   31   32 1
    50   32   33 1
    51   32   50 1
    52   32   51 1
    53   33   34 1
    54   33   52 1
    55   33   53 1
    56   34   35 1
    57   34   54 1
    58   34   55 1
    59   35   36 1
    60   35   56 1
    61   35   57 1
    62   36   58 1
    63   36   59 1
@<TRIPOS>MOLECULE
ZINC12497866
   70    73     0     0     0
SMALL
USER_CHARGES
methyl (3aR,4R,6R,6aR)-4-(2,4-dimethoxyphenyl)-2-(4-ethoxyphenyl)-6-(2-methylsulfanylethyl)-1,3-dioxo-3a,4,5,6a-tetrahydropyrrolo[3,4-c]pyrrole-6-carboxylate
@<TRIPOS>ATOM
      1 C1        -12.4557   -2.3563   -1.6274 C.3       1 <0>        -0.1549
      2 C2        -10.9322   -2.2297   -1.5659 C.3       1 <0>         0.0518
      3 O1        -10.4575   -2.7823   -0.3366 O.3       1 <0>        -0.3099
      4 C3         -9.1154   -2.7490   -0.1224 C.ar      1 <0>         0.1398
      5 C4         -8.5872   -3.2686    1.0505 C.ar      1 <0>        -0.1293
      6 C5         -7.2241   -3.2350    1.2684 C.ar      1 <0>        -0.0907
      7 C6         -6.3823   -2.6808    0.3139 C.ar      1 <0>         0.0679
      8 C7         -6.9117   -2.1559   -0.8570 C.ar      1 <0>        -0.0901
      9 C8         -8.2744   -2.1951   -1.0767 C.ar      1 <0>        -0.1867
     10 N1         -4.9969   -2.6460    0.5352 N.am      1 <0>        -0.5253
     11 C9         -4.3943   -3.1367    1.6638 C.2       1 <0>         0.5614
     12 O2         -4.8761   -3.8816    2.4901 O.2       1 <0>        -0.4006
     13 C10        -3.0301   -2.5630    1.6592 C.3       1 <0>        -0.1537
     14 H1         -3.0441   -1.5400    2.0354 H         1 <0>         0.1617
     15 C11        -1.7598   -3.2638    2.0774 C.3       1 <0>         0.1386
     16 H2         -1.8109   -4.3281    1.8480 H         1 <0>         0.1705
     17 C12        -1.4126   -2.0635    0.0045 C.3       1 <0>         0.1314
     18 C13        -2.7941   -2.6009    0.0971 C.3       1 <0>        -0.1697
     19 H3         -2.7480   -3.6611   -0.1515 H         1 <0>         0.1521
     20 C14        -4.0962   -2.1172   -0.3552 C.2       1 <0>         0.5751
     21 O3         -4.3299   -1.4052   -1.3081 O.2       1 <0>        -0.4101
     22 C15        -1.4333   -0.5336    0.0129 C.3       1 <0>        -0.1285
     23 C16         0.0021   -0.0041    0.0020 C.3       1 <0>        -0.1247
     24 S1         -0.0225    1.8097    0.0120 S.3       1 <0>        -0.2140
     25 C17         1.7314    2.2725   -0.0023 C.3       1 <0>        -0.1263
     26 C18        -0.7304   -2.5720   -1.2393 C.2       1 <0>         0.4513
     27 O4         -1.3874   -2.8834   -2.2044 O.2       1 <0>        -0.4222
     28 O5          0.6072   -2.6791   -1.2751 O.3       1 <0>        -0.3602
     29 C19         1.1960   -3.1762   -2.5058 C.3       1 <0>         0.0327
     30 C20        -1.4834   -3.0427    3.5423 C.ar      1 <0>        -0.2212
     31 C21        -0.7319   -1.9557    3.9467 C.ar      1 <0>        -0.0456
     32 C22        -0.4809   -1.7476    5.2893 C.ar      1 <0>        -0.2270
     33 C23        -0.9742   -2.6362    6.2345 C.ar      1 <0>         0.2054
     34 C24        -1.7237   -3.7301    5.8310 C.ar      1 <0>        -0.2345
     35 C25        -1.9787   -3.9338    4.4834 C.ar      1 <0>         0.2195
     36 O6         -2.7128   -5.0057    4.0846 O.3       1 <0>        -0.3004
     37 C26        -3.1908   -5.8815    5.1077 C.3       1 <0>         0.0237
     38 O7         -0.7229   -2.4336    7.5546 O.3       1 <0>        -0.3031
     39 C27         0.0562   -1.2859    7.8981 C.3       1 <0>         0.0201
     40 H4        -12.8178   -1.9348   -2.5651 H         1 <0>         0.0826
     41 H5        -12.7355   -3.4082   -1.5699 H         1 <0>         0.0686
     42 H6        -12.8993   -1.8162   -0.7910 H         1 <0>         0.0687
     43 H7        -10.6525   -1.1777   -1.6234 H         1 <0>         0.0656
     44 H8        -10.4887   -2.7698   -2.4024 H         1 <0>         0.0654
     45 H9         -9.2423   -3.6997    1.7931 H         1 <0>         0.1443
     46 H10        -6.8131   -3.6395    2.1816 H         1 <0>         0.1544
     47 H11        -6.2575   -1.7206   -1.5979 H         1 <0>         0.1512
     48 H12        -8.6860   -1.7904   -1.9895 H         1 <0>         0.1406
     49 H13        -1.9435   -0.1821    0.9097 H         1 <0>         0.1220
     50 H14        -1.9605   -0.1726   -0.8702 H         1 <0>         0.1443
     51 H15         0.5123   -0.3556   -0.8948 H         1 <0>         0.1055
     52 H16         0.5293   -0.3651    0.8851 H         1 <0>         0.0802
     53 H17         2.2053    1.8731   -0.8990 H         1 <0>         0.0839
     54 H18         1.8206    3.3588    0.0027 H         1 <0>         0.1140
     55 H19         2.2222    1.8636    0.8809 H         1 <0>         0.0823
     56 H20         0.8165   -4.1770   -2.7118 H         1 <0>         0.0793
     57 H21         0.9332   -2.5114   -3.3287 H         1 <0>         0.0804
     58 H22         2.2803   -3.2133   -2.4007 H         1 <0>         0.1220
     59 H23        -0.3438   -1.2654    3.2124 H         1 <0>         0.1236
     60 H24         0.1031   -0.8951    5.6032 H         1 <0>         0.1464
     61 H25        -2.1087   -4.4225    6.5650 H         1 <0>         0.1535
     62 H26        -2.3447   -6.2941    5.6572 H         1 <0>         0.0650
     63 H27        -3.8320   -5.3254    5.7916 H         1 <0>         0.0673
     64 H28        -3.7602   -6.6929    4.6545 H         1 <0>         0.1121
     65 H29        -0.4531   -0.3852    7.5553 H         1 <0>         0.0645
     66 H30         0.1820   -1.2427    8.9799 H         1 <0>         0.1125
     67 H31         1.0338   -1.3545    7.4210 H         1 <0>         0.0639
     68 N2         -0.7360   -2.5853    1.2267 N.4       1 <0>        -0.5249
     69 H32        -0.0066   -3.2567    0.9596 H         1 <0>         0.4503
     70 H33        -0.3121   -1.8083    1.7471 H         1 <0>         0.4360
@<TRIPOS>BOND
     1    1    2 1
     2    1   40 1
     3    1   41 1
     4    1   42 1
     5    2    3 1
     6    2   43 1
     7    2   44 1
     8    3    4 1
     9    4    9 ar
    10    4    5 ar
    11    5    6 ar
    12    5   45 1
    13    6    7 ar
    14    6   46 1
    15    7    8 ar
    16    7   10 1
    17    8    9 ar
    18    8   47 1
    19    9   48 1
    20   10   20 am
    21   10   11 am
    22   11   12 2
    23   11   13 1
    24   13   14 1
    25   13   18 1
    26   13   15 1
    27   15   16 1
    28   15   30 1
    29   15   68 1
    30   17   18 1
    31   17   22 1
    32   17   26 1
    33   17   68 1
    34   18   19 1
    35   18   20 1
    36   20   21 2
    37   22   23 1
    38   22   49 1
    39   22   50 1
    40   23   24 1
    41   23   51 1
    42   23   52 1
    43   24   25 1
    44   25   53 1
    45   25   54 1
    46   25   55 1
    47   26   27 2
    48   26   28 1
    49   28   29 1
    50   29   56 1
    51   29   57 1
    52   29   58 1
    53   30   35 ar
    54   30   31 ar
    55   31   32 ar
    56   31   59 1
    57   32   33 ar
    58   32   60 1
    59   33   34 ar
    60   33   38 1
    61   34   35 ar
    62   34   61 1
    63   35   36 1
    64   36   37 1
    65   37   62 1
    66   37   63 1
    67   37   64 1
    68   38   39 1
    69   39   65 1
    70   39   66 1
    71   39   67 1
    72   68   69 1
    73   68   70 1
@<TRIPOS>MOLECULE
ZINC35664573
   72    75     0     0     0
SMALL
USER_CHARGES

@<TRIPOS>ATOM
      1 C1         -0.2694   -1.3311    2.9011 C.3       1 <0>        -0.1568
      2 C2         -0.2916   -2.4101    1.8166 C.3       1 <0>         0.0609
      3 O1         -1.5823   -2.4433    1.2041 O.3       1 <0>        -0.3233
      4 C3         -1.7702   -3.3470    0.2198 C.2       1 <0>         0.5414
      5 O2         -0.8615   -4.0865   -0.1088 O.2       1 <0>        -0.5252
      6 C4         -3.0235   -3.4346   -0.4302 C.2       1 <0>        -0.2101
      7 C5         -3.2825   -4.4190   -1.3176 C.2       1 <0>         0.1915
      8 N1         -4.4931   -4.5027   -1.9440 N.am      1 <0>        -0.5356
      9 C6         -5.4969   -3.6408   -1.7380 C.2       1 <0>         0.7044
     10 O3         -6.5395   -3.7971   -2.3431 O.2       1 <0>        -0.5326
     11 N2         -5.3892   -2.6059   -0.8814 N.am      1 <0>        -0.7044
     12 C7         -4.1233   -2.4307   -0.1495 C.3       1 <0>         0.2298
     13 H1         -4.3414   -2.4609    0.9180 H         1 <0>         0.1067
     14 C8         -3.5923   -1.0577   -0.4716 C.ar      1 <0>        -0.1254
     15 C9         -3.5562   -0.6205   -1.7825 C.ar      1 <0>        -0.1036
     16 C10        -3.0691    0.6390   -2.0780 C.ar      1 <0>        -0.1208
     17 C11        -2.6185    1.4615   -1.0625 C.ar      1 <0>        -0.1021
     18 C12        -2.6554    1.0247    0.2485 C.ar      1 <0>        -0.1160
     19 C13        -3.1465   -0.2332    0.5444 C.ar      1 <0>        -0.0790
     20 C14        -4.7053   -5.5967   -2.8950 C.3       1 <0>         0.1358
     21 C15        -5.3368   -6.7655   -2.1835 C.2       1 <0>        -0.2236
     22 C16        -6.4525   -7.2822   -2.6353 C.2       1 <0>        -0.1123
     23 C17        -2.2182   -5.4416   -1.6219 C.3       1 <0>        -0.0265
     24 N3         -1.5480   -5.0908   -2.8812 N.4       1 <0>        -0.3554
     25 C18        -0.7425   -6.2326   -3.3083 C.3       1 <0>        -0.0100
     26 C19        -0.6415   -6.2357   -4.8176 C.3       1 <0>        -0.1587
     27 C20         0.6380   -5.4950   -5.2471 C.3       1 <0>         0.0871
     28 N4          0.8651   -4.2988   -4.4112 N.am      1 <0>        -0.6216
     29 C21        -0.2108   -3.4124   -4.0177 C.3       1 <0>         0.1029
     30 C22        -0.8254   -3.8933   -2.6830 C.3       1 <0>        -0.0528
     31 C23         2.1182   -4.0223   -3.9993 C.2       1 <0>         0.5651
     32 O4          2.3185   -3.0895   -3.2458 O.2       1 <0>        -0.4970
     33 C24         3.2481   -4.8525   -4.4633 C.ar      1 <0>        -0.1852
     34 C25         3.3306   -5.2402   -5.8025 C.ar      1 <0>        -0.0641
     35 C26         4.3881   -6.0148   -6.2293 C.ar      1 <0>        -0.1324
     36 C27         5.3682   -6.4099   -5.3346 C.ar      1 <0>        -0.0552
     37 C28         5.2953   -6.0317   -4.0073 C.ar      1 <0>        -0.1561
     38 C29         4.2437   -5.2494   -3.5653 C.ar      1 <0>         0.1540
     39 F1          4.1755   -4.8752   -2.2690 F         1 <0>        -0.1212
     40 H2          0.7151   -1.3058    3.3683 H         1 <0>         0.0865
     41 H3         -0.4839   -0.3609    2.4529 H         1 <0>         0.0704
     42 H4         -1.0235   -1.5579    3.6548 H         1 <0>         0.0703
     43 H5          0.4625   -2.1833    1.0629 H         1 <0>         0.0749
     44 H6         -0.0771   -3.3802    2.2648 H         1 <0>         0.0746
     45 H7         -6.1290   -1.9931   -0.7476 H         1 <0>         0.4419
     46 H8         -3.9083   -1.2632   -2.5759 H         1 <0>         0.1097
     47 H9         -3.0403    0.9802   -3.1022 H         1 <0>         0.1241
     48 H10        -2.2373    2.4452   -1.2934 H         1 <0>         0.1267
     49 H11        -2.3031    1.6672    1.0419 H         1 <0>         0.1283
     50 H12        -3.1788   -0.5730    1.5691 H         1 <0>         0.1305
     51 H13        -5.3640   -5.2596   -3.6954 H         1 <0>         0.1215
     52 H14        -3.7478   -5.9022   -3.3168 H         1 <0>         0.0703
     53 H15        -4.8694   -7.1771   -1.3012 H         1 <0>         0.1167
     54 H16        -6.8766   -6.9252   -3.5622 H         1 <0>         0.1081
     55 H17        -6.9484   -8.0653   -2.0809 H         1 <0>         0.1129
     56 H18        -1.4873   -5.4570   -0.8134 H         1 <0>         0.2101
     57 H19        -2.6765   -6.4260   -1.7162 H         1 <0>         0.1479
     58 H20         0.2556   -6.1556   -2.8770 H         1 <0>         0.1373
     59 H21        -1.2141   -7.1564   -2.9733 H         1 <0>         0.1411
     60 H22        -0.6042   -7.2640   -5.1773 H         1 <0>         0.1323
     61 H23        -1.5115   -5.7338   -5.2411 H         1 <0>         0.0904
     62 H24         1.4905   -6.1671   -5.1488 H         1 <0>         0.1105
     63 H25         0.5422   -5.1902   -6.2892 H         1 <0>         0.0931
     64 H26         0.1792   -2.4022   -3.8934 H         1 <0>         0.1292
     65 H27        -0.9795   -3.4103   -4.7905 H         1 <0>         0.0983
     66 H28        -1.4969   -3.1261   -2.2974 H         1 <0>         0.1315
     67 H29        -0.0281   -4.0680   -1.9606 H         1 <0>         0.1581
     68 H30         2.5671   -4.9341   -6.5023 H         1 <0>         0.1399
     69 H31         4.4521   -6.3147   -7.2648 H         1 <0>         0.1423
     70 H32         6.1938   -7.0169   -5.6757 H         1 <0>         0.1447
     71 H33         6.0630   -6.3441   -3.3149 H         1 <0>         0.1482
     72 H34        -2.2555   -4.9236   -3.5809 H         1 <0>         0.4049
@<TRIPOS>BOND
     1    1    2 1
     2    1   40 1
     3    1   41 1
     4    1   42 1
     5    2    3 1
     6    2   43 1
     7    2   44 1
     8    3    4 1
     9    4    5 2
    10    4    6 1
    11    6   12 1
    12    6    7 2
    13    7    8 1
    14    7   23 1
    15    8    9 am
    16    8   20 1
    17    9   10 2
    18    9   11 am
    19   11   12 1
    20   11   45 1
    21   12   13 1
    22   12   14 1
    23   14   19 ar
    24   14   15 ar
    25   15   16 ar
    26   15   46 1
    27   16   17 ar
    28   16   47 1
    29   17   18 ar
    30   17   48 1
    31   18   19 ar
    32   18   49 1
    33   19   50 1
    34   20   21 1
    35   20   51 1
    36   20   52 1
    37   21   22 2
    38   21   53 1
    39   22   54 1
    40   22   55 1
    41   23   24 1
    42   23   56 1
    43   23   57 1
    44   24   30 1
    45   24   25 1
    46   24   72 1
    47   25   26 1
    48   25   58 1
    49   25   59 1
    50   26   27 1
    51   26   60 1
    52   26   61 1
    53   27   28 1
    54   27   62 1
    55   27   63 1
    56   28   29 1
    57   28   31 am
    58   29   30 1
    59   29   64 1
    60   29   65 1
    61   30   66 1
    62   30   67 1
    63   31   32 2
    64   31   33 1
    65   33   38 ar
    66   33   34 ar
    67   34   35 ar
    68   34   68 1
    69   35   36 ar
    70   35   69 1
    71   36   37 ar
    72   36   70 1
    73   37   38 ar
    74   37   71 1
    75   38   39 1
@<TRIPOS>MOLECULE
ZINC38615218
   68    71     0     0     0
SMALL
USER_CHARGES

@<TRIPOS>ATOM
      1 C1         -2.5591    1.2809    2.2805 C.3       1 <0>         0.0205
      2 O1         -3.7139    0.8116    2.9792 O.3       1 <0>        -0.3065
      3 C2         -3.5090   -0.0915    3.9720 C.ar      1 <0>         0.1711
      4 C3         -2.2179   -0.5121    4.2699 C.ar      1 <0>        -0.2097
      5 C4         -2.0043   -1.4277    5.2755 C.ar      1 <0>        -0.0367
      6 C5         -3.0905   -1.9350    5.9993 C.ar      1 <0>        -0.1544
      7 C6         -4.3889   -1.5075    5.6952 C.ar      1 <0>        -0.0261
      8 C7         -4.5904   -0.5879    4.6907 C.ar      1 <0>        -0.1562
      9 C8         -2.8689   -2.9122    7.0727 C.2       1 <0>         0.1214
     10 C9         -1.6078   -3.1774    7.4994 C.2       1 <0>        -0.2716
     11 C10        -1.1248   -4.2363    8.4081 C.2       1 <0>         0.5555
     12 O2         -1.8840   -5.0466    8.9064 O.2       1 <0>        -0.4639
     13 N1          0.1746   -4.2599    8.6528 N.am      1 <0>        -0.5078
     14 C11         1.0124   -3.3603    8.0982 C.2       1 <0>         0.2615
     15 S1          2.7085   -3.2282    8.2896 S.2       1 <0>        -0.3463
     16 S2         -0.0743   -2.3456    7.1094 S.3       1 <0>         0.1027
     17 C12         0.7162   -5.2862    9.5470 C.3       1 <0>         0.0649
     18 C13         1.0952   -6.5034    8.7433 C.2       1 <0>         0.5201
     19 O3          0.9293   -6.5127    7.5420 O.2       1 <0>        -0.5105
     20 N2          1.6186   -7.5817    9.3597 N.am      1 <0>        -0.7195
     21 C14         1.9870   -8.7650    8.5785 C.3       1 <0>         0.1076
     22 C15         2.4265   -9.8842    9.5246 C.3       1 <0>         0.0734
     23 H1          3.2935   -9.5558   10.0978 H         1 <0>         0.1498
     24 C16         1.2984  -10.2175   10.4665 C.ar      1 <0>        -0.1877
     25 C17         0.2652  -11.0336   10.0445 C.ar      1 <0>        -0.0756
     26 C18        -0.7703  -11.3404   10.9059 C.ar      1 <0>        -0.1361
     27 C19        -0.7726  -10.8292   12.1956 C.ar      1 <0>         0.1637
     28 C20         0.2655  -10.0109   12.6168 C.ar      1 <0>        -0.1973
     29 C21         1.3013   -9.7114   11.7532 C.ar      1 <0>        -0.0492
     30 O4         -1.7904  -11.1291   13.0448 O.3       1 <0>        -0.3065
     31 C22        -1.7269  -10.5676   14.3574 C.3       1 <0>         0.0207
     32 N3          2.7796  -11.0763    8.7422 N.4       1 <0>        -0.3765
     33 C23         3.1452  -12.1672    9.6535 C.3       1 <0>        -0.0085
     34 C24         3.4356  -13.4349    8.8472 C.3       1 <0>        -0.1442
     35 C25         4.5930  -13.1650    7.8814 C.3       1 <0>        -0.1390
     36 C26         4.2306  -11.9773    6.9851 C.3       1 <0>        -0.1446
     37 C27         3.9107  -10.7637    7.8605 C.3       1 <0>        -0.0156
     38 H2         -2.0518    0.4386    1.8101 H         1 <0>         0.0617
     39 H3         -2.8627    1.9955    1.5155 H         1 <0>         0.1087
     40 H4         -1.8818    1.7666    2.9830 H         1 <0>         0.0625
     41 H5         -1.3809   -0.1201    3.7111 H         1 <0>         0.1419
     42 H6         -1.0009   -1.7543    5.5057 H         1 <0>         0.1310
     43 H7         -5.2302   -1.8958    6.2500 H         1 <0>         0.1456
     44 H8         -5.5910   -0.2546    4.4578 H         1 <0>         0.1454
     45 H9         -3.7092   -3.4198    7.5228 H         1 <0>         0.1654
     46 H10         1.5986   -4.8968   10.0547 H         1 <0>         0.1454
     47 H11        -0.0375   -5.5588   10.2858 H         1 <0>         0.1373
     48 H12         1.7512   -7.5743   10.3205 H         1 <0>         0.4081
     49 H13         1.1279   -9.0979    7.9961 H         1 <0>         0.0923
     50 H14         2.8073   -8.5151    7.9055 H         1 <0>         0.0943
     51 H15         0.2675  -11.4313    9.0404 H         1 <0>         0.1246
     52 H16        -1.5775  -11.9773   10.5755 H         1 <0>         0.1447
     53 H17         0.2659   -9.6117   13.6203 H         1 <0>         0.1438
     54 H18         2.1119   -9.0780   12.0821 H         1 <0>         0.1369
     55 H19        -2.5978  -10.8851   14.9308 H         1 <0>         0.1117
     56 H20        -0.8196  -10.9095   14.8553 H         1 <0>         0.0630
     57 H21        -1.7150   -9.4800   14.2871 H         1 <0>         0.0631
     58 H22         4.0334  -11.8854   10.2190 H         1 <0>         0.1301
     59 H23         2.3218  -12.3560   10.3423 H         1 <0>         0.1331
     60 H24         3.7086  -14.2432    9.5255 H         1 <0>         0.1132
     61 H25         2.5479  -13.7178    8.2814 H         1 <0>         0.0872
     62 H26         5.4942  -12.9320    8.4485 H         1 <0>         0.0827
     63 H27         4.7667  -14.0471    7.2650 H         1 <0>         0.0950
     64 H28         5.0718  -11.7438    6.3325 H         1 <0>         0.1147
     65 H29         3.3594  -12.2299    6.3807 H         1 <0>         0.0882
     66 H30         3.6525   -9.9162    7.2255 H         1 <0>         0.1330
     67 H31         4.7826  -10.5118    8.4642 H         1 <0>         0.1330
     68 H32         1.9875  -11.3580    8.1843 H         1 <0>         0.4196
@<TRIPOS>BOND
     1    1    2 1
     2    1   38 1
     3    1   39 1
     4    1   40 1
     5    2    3 1
     6    3    8 ar
     7    3    4 ar
     8    4    5 ar
     9    4   41 1
    10    5    6 ar
    11    5   42 1
    12    6    7 ar
    13    6    9 1
    14    7    8 ar
    15    7   43 1
    16    8   44 1
    17    9   10 2
    18    9   45 1
    19   10   16 1
    20   10   11 1
    21   11   12 2
    22   11   13 am
    23   13   14 1
    24   13   17 1
    25   14   15 2
    26   14   16 1
    27   17   18 1
    28   17   46 1
    29   17   47 1
    30   18   19 2
    31   18   20 am
    32   20   21 1
    33   20   48 1
    34   21   22 1
    35   21   49 1
    36   21   50 1
    37   22   23 1
    38   22   24 1
    39   22   32 1
    40   24   29 ar
    41   24   25 ar
    42   25   26 ar
    43   25   51 1
    44   26   27 ar
    45   26   52 1
    46   27   28 ar
    47   27   30 1
    48   28   29 ar
    49   28   53 1
    50   29   54 1
    51   30   31 1
    52   31   55 1
    53   31   56 1
    54   31   57 1
    55   32   37 1
    56   32   33 1
    57   32   68 1
    58   33   34 1
    59   33   58 1
    60   33   59 1
    61   34   35 1
    62   34   60 1
    63   34   61 1
    64   35   36 1
    65   35   62 1
    66   35   63 1
    67   36   37 1
    68   36   64 1
    69   36   65 1
    70   37   66 1
    71   37   67 1
@<TRIPOS>MOLECULE
ZINC38904841
   60    63     0     0     0
SMALL
USER_CHARGES

@<TRIPOS>ATOM
      1 C1         -0.0167    1.3786    0.0096 C.ar      1 <0>        -0.1109
      2 C2          1.1677    2.0877    0.0021 C.ar      1 <0>        -0.0561
      3 C3          2.3838    1.4083   -0.0131 C.ar      1 <0>        -0.0548
      4 C4          2.3978    0.0151   -0.0207 C.ar      1 <0>        -0.0352
      5 C5          1.2074   -0.6847   -0.0131 C.ar      1 <0>        -0.1003
      6 C6          0.0021   -0.0041    0.0020 C.ar      1 <0>        -0.0509
      7 Br1         1.2237   -2.5756   -0.0239 Br        1 <0>        -0.0230
      8 C7          3.6601    2.1660   -0.0217 C.2       1 <0>         0.3099
      9 N1          4.8923    1.6270   -0.0418 N.2       1 <0>        -0.4845
     10 C8          5.7913    2.5695   -0.0445 C.2       1 <0>         0.2241
     11 O1          5.1654    3.7533   -0.0262 O.3       1 <0>        -0.0827
     12 N2          3.7740    3.4711   -0.0167 N.2       1 <0>        -0.2887
     13 C9          7.2839    2.3627   -0.0644 C.3       1 <0>         0.0955
     14 N3          7.7521    2.3075   -1.4557 N.4       1 <0>        -0.3841
     15 C10         7.5230    3.6066   -2.0994 C.3       1 <0>        -0.0209
     16 C11         7.9341    3.5303   -3.5714 C.3       1 <0>        -0.1398
     17 C12         9.4193    3.1683   -3.6628 C.3       1 <0>        -0.1316
     18 C13         9.6594    1.8486   -2.9240 C.3       1 <0>        -0.1313
     19 H1          9.1028    1.0502   -3.4149 H         1 <0>         0.1245
     20 C14         9.1844    1.9872   -1.4761 C.3       1 <0>         0.0109
     21 C15        11.1304    1.5217   -2.9429 C.2       1 <0>         0.5249
     22 O2         11.7395    1.4067   -1.9005 O.2       1 <0>        -0.5273
     23 N4         11.7692    1.3572   -4.1183 N.am      1 <0>        -0.7171
     24 C16        13.1992    1.0394   -4.1366 C.3       1 <0>         0.1213
     25 C17        13.6734    0.9061   -5.5851 C.3       1 <0>        -0.1158
     26 C18        15.1669    0.5742   -5.6043 C.3       1 <0>        -0.0927
     27 S1         15.7292    0.4162   -7.3217 S.3       1 <0>        -0.2377
     28 C19        17.4946    0.0272   -7.1714 C.3       1 <0>        -0.0036
     29 C20        18.0926   -0.1321   -8.5455 C.2       1 <0>        -0.0161
     30 C21        18.6460    0.8487   -9.2811 C.2       1 <0>        -0.1764
     31 C22        19.0751    0.2596  -10.4927 C.2       1 <0>        -0.2162
     32 C23        18.7583   -1.0459  -10.4249 C.2       1 <0>        -0.0229
     33 O3         18.1687   -1.2786   -9.2408 O.3       1 <0>        -0.1711
     34 H2         -0.9597    1.9047    0.0260 H         1 <0>         0.1499
     35 H3          1.1516    3.1676    0.0077 H         1 <0>         0.1416
     36 H4          3.3379   -0.5165   -0.0328 H         1 <0>         0.1482
     37 H5         -0.9269   -0.5549    0.0079 H         1 <0>         0.1477
     38 H6          7.7722    3.1899    0.4507 H         1 <0>         0.1728
     39 H7          7.5278    1.4268    0.4384 H         1 <0>         0.1810
     40 H8          6.4662    3.8643   -2.0307 H         1 <0>         0.1288
     41 H9          8.1158    4.3704   -1.5962 H         1 <0>         0.1423
     42 H10         7.3417    2.7668   -4.0756 H         1 <0>         0.0926
     43 H11         7.7649    4.4963   -4.0471 H         1 <0>         0.1230
     44 H12         9.7036    3.0573   -4.7092 H         1 <0>         0.1025
     45 H13        10.0156    3.9568   -3.2036 H         1 <0>         0.0936
     46 H14         9.7418    2.7856   -0.9861 H         1 <0>         0.1470
     47 H15         9.3541    1.0493   -0.9471 H         1 <0>         0.1482
     48 H16        11.2820    1.4492   -4.9520 H         1 <0>         0.4060
     49 H17        13.7550    1.8374   -3.6443 H         1 <0>         0.0782
     50 H18        13.3694    0.1000   -3.6107 H         1 <0>         0.0782
     51 H19        13.1176    0.1082   -6.0775 H         1 <0>         0.0828
     52 H20        13.5032    1.8455   -6.1111 H         1 <0>         0.0828
     53 H21        15.7227    1.3722   -5.1120 H         1 <0>         0.0885
     54 H22        15.3371   -0.3652   -5.0784 H         1 <0>         0.0883
     55 H23        18.0015    0.8367   -6.6462 H         1 <0>         0.1122
     56 H24        17.6159   -0.9007   -6.6125 H         1 <0>         0.1011
     57 H25        18.7432    1.8871   -9.0005 H         1 <0>         0.1516
     58 H26        19.5633    0.7616  -11.3149 H         1 <0>         0.1535
     59 H27        18.9494   -1.7828  -11.1910 H         1 <0>         0.2081
     60 H28         7.2417    1.5932   -1.9532 H         1 <0>         0.4299
@<TRIPOS>BOND
     1    1    6 ar
     2    1    2 ar
     3    1   34 1
     4    2    3 ar
     5    2   35 1
     6    3    4 ar
     7    3    8 1
     8    4    5 ar
     9    4   36 1
    10    5    6 ar
    11    5    7 1
    12    6   37 1
    13    8   12 2
    14    8    9 1
    15    9   10 2
    16   10   11 1
    17   10   13 1
    18   11   12 1
    19   13   14 1
    20   13   38 1
    21   13   39 1
    22   14   20 1
    23   14   15 1
    24   14   60 1
    25   15   16 1
    26   15   40 1
    27   15   41 1
    28   16   17 1
    29   16   42 1
    30   16   43 1
    31   17   18 1
    32   17   44 1
    33   17   45 1
    34   18   19 1
    35   18   20 1
    36   18   21 1
    37   20   46 1
    38   20   47 1
    39   21   22 2
    40   21   23 am
    41   23   24 1
    42   23   48 1
    43   24   25 1
    44   24   49 1
    45   24   50 1
    46   25   26 1
    47   25   51 1
    48   25   52 1
    49   26   27 1
    50   26   53 1
    51   26   54 1
    52   27   28 1
    53   28   29 1
    54   28   55 1
    55   28   56 1
    56   29   33 1
    57   29   30 2
    58   30   31 1
    59   30   57 1
    60   31   32 2
    61   31   58 1
    62   32   33 1
    63   32   59 1
@<TRIPOS>MOLECULE
ZINC63205566
   75    79     0     0     0
SMALL
USER_CHARGES

@<TRIPOS>ATOM
      1 C1          3.4500    4.5490    4.6384 C.3       1 <0>         0.0236
      2 O1          2.5743    3.8288    3.7686 O.3       1 <0>        -0.3021
      3 C2          2.5074    2.4810    3.9376 C.ar      1 <0>         0.1159
      4 C3          3.2634    1.8664    4.9228 C.ar      1 <0>        -0.1693
      5 C4          3.1938    0.4963    5.0935 C.ar      1 <0>        -0.1107
      6 C5          2.3712   -0.2635    4.2828 C.ar      1 <0>        -0.1068
      7 C6          1.6146    0.3433    3.2978 C.ar      1 <0>        -0.1538
      8 C7          1.6750    1.7169    3.1253 C.ar      1 <0>         0.1069
      9 O2          0.9268    2.3162    2.1607 O.3       1 <0>        -0.3010
     10 C8          0.0955    1.4693    1.3647 C.3       1 <0>         0.0243
     11 C9          2.2995   -1.7568    4.4730 C.3       1 <0>         0.1720
     12 H1          1.8042   -2.2091    3.6138 H         1 <0>         0.1293
     13 C10         1.5183   -2.0669    5.7238 C.2       1 <0>         0.5100
     14 O3          2.1018   -2.2928    6.7628 O.2       1 <0>        -0.5092
     15 N1          0.1713   -2.0932    5.6880 N.am      1 <0>        -0.7168
     16 C11        -0.5881   -2.3947    6.9039 C.3       1 <0>         0.1486
     17 C12        -0.7090   -3.9112    7.0669 C.3       1 <0>        -0.1253
     18 C13        -1.5021   -4.2261    8.3368 C.3       1 <0>        -0.1171
     19 C14        -2.8993   -3.6115    8.2311 C.3       1 <0>        -0.1237
     20 C15        -2.7784   -2.0950    8.0682 C.3       1 <0>        -0.1167
     21 C16        -1.9853   -1.7801    6.7982 C.3       1 <0>        -0.1274
     22 N2          3.6549   -2.2989    4.5967 N.am      1 <0>        -0.5769
     23 C17         4.4562   -2.0033    5.7869 C.3       1 <0>         0.1745
     24 C18         4.6979   -3.2751    6.5584 C.2       1 <0>        -0.0272
     25 C19         5.8695   -3.9298    6.6487 C.2       1 <0>        -0.2185
     26 C20         5.6441   -5.0622    7.4647 C.2       1 <0>        -0.2224
     27 C21         4.3482   -5.0318    7.8241 C.2       1 <0>        -0.0272
     28 O4          3.7815   -3.9440    7.2770 O.3       1 <0>        -0.1283
     29 C22         4.1645   -3.0697    3.6155 C.2       1 <0>         0.5343
     30 O5          3.5010   -3.3144    2.6302 O.2       1 <0>        -0.5295
     31 C23         5.5587   -3.6274    3.7427 C.3       1 <0>        -0.1331
     32 C24         5.8849   -4.4479    2.5215 C.2       1 <0>         0.0899
     33 C25         6.5459   -4.0340    1.4165 C.ar      1 <0>        -0.1630
     34 C26         7.1353   -2.7450    1.0349 C.ar      1 <0>        -0.0098
     35 C27         7.7463   -2.6331   -0.1665 C.ar      1 <0>        -0.1515
     36 C28         7.8301   -3.7145   -1.0543 C.ar      1 <0>         0.0536
     37 C29         7.3128   -4.9295   -0.7746 C.ar      1 <0>        -0.2090
     38 C30         6.6482   -5.1604    0.4614 C.ar      1 <0>         0.3302
     39 N3          6.0729   -6.2292    0.9568 N.pl3     1 <0>        -0.5824
     40 C31         5.5452   -5.9027    2.2863 C.3       1 <0>         0.0634
     41 H2          4.4698    4.1865    4.5088 H         1 <0>         0.0570
     42 H3          3.4086    5.6112    4.3975 H         1 <0>         0.1059
     43 H4          3.1396    4.3985    5.6724 H         1 <0>         0.0583
     44 H5          3.9074    2.4576    5.5569 H         1 <0>         0.1415
     45 H6          3.7836    0.0184    5.8618 H         1 <0>         0.1361
     46 H7          0.9731   -0.2526    2.6655 H         1 <0>         0.1380
     47 H8         -0.4458    2.0726    0.6359 H         1 <0>         0.1055
     48 H9          0.7142    0.7386    0.8437 H         1 <0>         0.0551
     49 H10        -0.6160    0.9507    2.0073 H         1 <0>         0.0565
     50 H11        -0.2954   -1.9126    4.8570 H         1 <0>         0.3996
     51 H12        -0.0716   -1.9765    7.7679 H         1 <0>         0.0912
     52 H13        -1.2255   -4.3294    6.2029 H         1 <0>         0.0616
     53 H14         0.2863   -4.3491    7.1422 H         1 <0>         0.0656
     54 H15        -1.5883   -5.3065    8.4529 H         1 <0>         0.0653
     55 H16        -0.9857   -3.8079    9.2008 H         1 <0>         0.0650
     56 H17        -3.4157   -4.0297    7.3671 H         1 <0>         0.0629
     57 H18        -3.4643   -3.8358    9.1358 H         1 <0>         0.0667
     58 H19        -3.7737   -1.6572    7.9928 H         1 <0>         0.0700
     59 H20        -2.2619   -1.6768    8.9321 H         1 <0>         0.0661
     60 H21        -1.8991   -0.6998    6.6822 H         1 <0>         0.0696
     61 H22        -2.5017   -2.1984    5.9342 H         1 <0>         0.0682
     62 H23         5.4117   -1.5748    5.4843 H         1 <0>         0.1056
     63 H24         3.9222   -1.2920    6.4170 H         1 <0>         0.1343
     64 H25         6.8031   -3.6453    6.1862 H         1 <0>         0.1502
     65 H26         6.3725   -5.8086    7.7453 H         1 <0>         0.1500
     66 H27         3.8492   -5.7569    8.4499 H         1 <0>         0.2019
     67 H28         6.2714   -2.8074    3.8305 H         1 <0>         0.1385
     68 H29         5.6185   -4.2573    4.6303 H         1 <0>         0.1544
     69 H30         7.0816   -1.8985    1.7033 H         1 <0>         0.1579
     70 H31         8.1807   -1.6856   -0.4493 H         1 <0>         0.1575
     71 H32         8.3288   -3.5696   -2.0013 H         1 <0>         0.1608
     72 H33         7.4038   -5.7304   -1.4933 H         1 <0>         0.1606
     73 H34         6.0188   -6.5265    3.0443 H         1 <0>         0.1741
     74 H35         4.4645   -6.0439    2.3043 H         1 <0>         0.1753
     75 H36         6.0101   -7.0926    0.5191 H         1 <0>         0.4556
@<TRIPOS>BOND
     1    1    2 1
     2    1   41 1
     3    1   42 1
     4    1   43 1
     5    2    3 1
     6    3    8 ar
     7    3    4 ar
     8    4    5 ar
     9    4   44 1
    10    5    6 ar
    11    5   45 1
    12    6    7 ar
    13    6   11 1
    14    7    8 ar
    15    7   46 1
    16    8    9 1
    17    9   10 1
    18   10   47 1
    19   10   48 1
    20   10   49 1
    21   11   12 1
    22   11   13 1
    23   11   22 1
    24   13   14 2
    25   13   15 am
    26   15   16 1
    27   15   50 1
    28   16   21 1
    29   16   17 1
    30   16   51 1
    31   17   18 1
    32   17   52 1
    33   17   53 1
    34   18   19 1
    35   18   54 1
    36   18   55 1
    37   19   20 1
    38   19   56 1
    39   19   57 1
    40   20   21 1
    41   20   58 1
    42   20   59 1
    43   21   60 1
    44   21   61 1
    45   22   23 1
    46   22   29 am
    47   23   24 1
    48   23   62 1
    49   23   63 1
    50   24   28 1
    51   24   25 2
    52   25   26 1
    53   25   64 1
    54   26   27 2
    55   26   65 1
    56   27   28 1
    57   27   66 1
    58   29   30 2
    59   29   31 1
    60   31   32 1
    61   31   67 1
    62   31   68 1
    63   32   40 1
    64   32   33 2
    65   33   38 ar
    66   33   34 ar
    67   34   35 ar
    68   34   69 1
    69   35   36 ar
    70   35   70 1
    71   36   37 ar
    72   36   71 1
    73   37   38 ar
    74   37   72 1
    75   38   39 2
    76   39   40 1
    77   39   75 1
    78   40   73 1
    79   40   74 1
@<TRIPOS>MOLECULE
ZINC12973203
   51    54     0     0     0
SMALL
USER_CHARGES
2-[(2S)-2-(3,4-dihydro-2H-1,5-benzodioxepin-7-yl)pyrrolidin-1-yl]-N-(2-iodophenyl)acetamide
@<TRIPOS>ATOM
      1 C1          0.9530   -2.1133    0.5299 C.ar      1 <0>        -0.0784
      2 C2         -0.1567   -2.7691    0.0288 C.ar      1 <0>        -0.1157
      3 C3         -1.2201   -2.0459   -0.4789 C.ar      1 <0>        -0.0618
      4 C4         -1.1770   -0.6648   -0.4869 C.ar      1 <0>        -0.1271
      5 C5         -0.0639   -0.0034    0.0162 C.ar      1 <0>         0.1595
      6 C6          1.0045   -0.7333    0.5205 C.ar      1 <0>        -0.1206
      7 N1         -0.0169    1.3952    0.0097 N.am      1 <0>        -0.6471
      8 C7          1.1723    2.0295    0.0024 C.2       1 <0>         0.5077
      9 O1          2.1990    1.3919   -0.0996 O.2       1 <0>        -0.5039
     10 C8          1.2262    3.5308    0.1209 C.3       1 <0>        -0.0248
     11 C9          3.3093    3.6778    1.3732 C.3       1 <0>        -0.0106
     12 C10         4.5191    4.6365    1.4013 C.3       1 <0>        -0.1464
     13 C11         4.1271    5.8038    0.4722 C.3       1 <0>        -0.1381
     14 C12         2.7135    5.4522   -0.0391 C.3       1 <0>         0.0823
     15 H1          1.9538    5.9323    0.5778 H         1 <0>         0.1525
     16 C13         2.5576    5.8661   -1.4798 C.ar      1 <0>        -0.1347
     17 C14         3.1559    5.1213   -2.4792 C.ar      1 <0>        -0.1128
     18 C15         3.0159    5.4943   -3.8040 C.ar      1 <0>        -0.1011
     19 C16         2.2739    6.6180   -4.1260 C.ar      1 <0>         0.0975
     20 C17         1.6745    7.3662   -3.1229 C.ar      1 <0>         0.0816
     21 C18         1.8117    6.9868   -1.7983 C.ar      1 <0>        -0.0863
     22 O2          0.9455    8.4722   -3.4508 O.3       1 <0>        -0.3158
     23 C19         1.6865    9.5754   -3.9764 C.3       1 <0>         0.0603
     24 C20         1.9060    9.4139   -5.4724 C.3       1 <0>        -0.1931
     25 C21         2.7773    8.2125   -5.8035 C.3       1 <0>         0.0606
     26 O3          2.1270    6.9963   -5.4289 O.3       1 <0>        -0.3167
     27 I1         -2.7882    0.4304   -1.2575 I         1 <0>        -0.0252
     28 H2          1.7820   -2.6813    0.9258 H         1 <0>         0.1395
     29 H3         -0.1926   -3.8485    0.0336 H         1 <0>         0.1405
     30 H4         -2.0851   -2.5609   -0.8698 H         1 <0>         0.1405
     31 H5          1.8734   -0.2221    0.9080 H         1 <0>         0.1510
     32 H6         -0.8402    1.9082    0.0065 H         1 <0>         0.4193
     33 H7          0.6828    3.9807   -0.7100 H         1 <0>         0.1638
     34 H8          0.7700    3.8376    1.0621 H         1 <0>         0.1648
     35 H9          2.6443    3.8802    2.2128 H         1 <0>         0.1338
     36 H10         3.6453    2.6411    1.3946 H         1 <0>         0.1466
     37 H11         5.4092    4.1339    1.0229 H         1 <0>         0.1026
     38 H12         4.6922    5.0004    2.4141 H         1 <0>         0.1148
     39 H13         4.8248    5.8743   -0.3622 H         1 <0>         0.1037
     40 H14         4.1061    6.7404    1.0293 H         1 <0>         0.1169
     41 H15         3.7340    4.2453   -2.2248 H         1 <0>         0.1288
     42 H16         3.4838    4.9116   -4.5838 H         1 <0>         0.1491
     43 H17         1.3415    7.5654   -1.0170 H         1 <0>         0.1475
     44 H18         2.6533    9.6293   -3.4758 H         1 <0>         0.0611
     45 H19         1.1352   10.4974   -3.7921 H         1 <0>         0.1144
     46 H20         2.3844   10.3141   -5.8583 H         1 <0>         0.1009
     47 H21         0.9380    9.2929   -5.9588 H         1 <0>         0.0902
     48 H22         3.7216    8.2949   -5.2652 H         1 <0>         0.0617
     49 H23         2.9753    8.1981   -6.8752 H         1 <0>         0.1150
     50 N2          2.6477    3.9997    0.1036 N.4       1 <0>        -0.3809
     51 H24         3.1421    3.5482   -0.6748 H         1 <0>         0.4327
@<TRIPOS>BOND
     1    1    6 ar
     2    1    2 ar
     3    1   28 1
     4    2    3 ar
     5    2   29 1
     6    3    4 ar
     7    3   30 1
     8    4    5 ar
     9    4   27 1
    10    5    6 ar
    11    5    7 1
    12    6   31 1
    13    7    8 am
    14    7   32 1
    15    8    9 2
    16    8   10 1
    17   10   33 1
    18   10   34 1
    19   10   50 1
    20   11   12 1
    21   11   35 1
    22   11   36 1
    23   11   50 1
    24   12   13 1
    25   12   37 1
    26   12   38 1
    27   13   14 1
    28   13   39 1
    29   13   40 1
    30   14   15 1
    31   14   16 1
    32   14   50 1
    33   16   21 ar
    34   16   17 ar
    35   17   18 ar
    36   17   41 1
    37   18   19 ar
    38   18   42 1
    39   19   26 1
    40   19   20 ar
    41   20   21 ar
    42   20   22 1
    43   21   43 1
    44   22   23 1
    45   23   24 1
    46   23   44 1
    47   23   45 1
    48   24   25 1
    49   24   46 1
    50   24   47 1
    51   25   26 1
    52   25   48 1
    53   25   49 1
    54   50   51 1
@<TRIPOS>MOLECULE
ZINC30978323
   56    59     0     0     0
SMALL
USER_CHARGES
1-[[3-(3-bromophenyl)-1,2,4-oxadiazol-5-yl]methyl]-N-(2,3-dimethylphenyl)piperidine-4-carboxamide
@<TRIPOS>ATOM
      1 C1         -2.6817    2.7911   -0.0540 C.3       1 <0>        -0.1193
      2 C2         -1.9957    2.3781    1.2228 C.ar      1 <0>        -0.0672
      3 C3         -2.7351    2.2007    2.3780 C.ar      1 <0>        -0.1226
      4 C4         -2.1087    1.8278    3.5528 C.ar      1 <0>        -0.1035
      5 C5         -0.7425    1.6253    3.5746 C.ar      1 <0>        -0.1228
      6 C6          0.0019    1.7970    2.4151 C.ar      1 <0>         0.1367
      7 C7         -0.6304    2.1721    1.2367 C.ar      1 <0>        -0.1094
      8 C8          0.1737    2.3601   -0.0239 C.3       1 <0>        -0.1119
      9 N1          1.3861    1.5931    2.4340 N.am      1 <0>        -0.6760
     10 C9          2.1001    1.9167    3.5303 C.2       1 <0>         0.5148
     11 O1          1.5339    2.3081    4.5290 O.2       1 <0>        -0.5112
     12 C10         3.6018    1.7924    3.5153 C.3       1 <0>        -0.1204
     13 C11         3.9921    0.3367    3.2445 C.3       1 <0>        -0.1395
     14 C12         5.5161    0.2052    3.2909 C.3       1 <0>        -0.0076
     15 N2          6.0049    0.6244    4.6106 N.4       1 <0>        -0.4035
     16 C13         5.6833    2.0330    4.8731 C.3       1 <0>        -0.0013
     17 C14         4.1642    2.2191    4.8740 C.3       1 <0>        -0.1289
     18 C15         7.4480    0.3812    4.7391 C.3       1 <0>         0.1073
     19 C16         7.7121   -1.1021    4.7075 C.2       1 <0>         0.1030
     20 N3          7.9486   -1.8277    3.6431 N.2       1 <0>        -0.4264
     21 C17         8.1248   -3.0897    4.0956 C.2       1 <0>         0.2337
     22 N4          7.9864   -3.0566    5.3954 N.2       1 <0>        -0.3384
     23 O2          7.7549   -1.9235    5.7612 O.3       1 <0>         0.1176
     24 C18         8.4209   -4.2880    3.2713 C.ar      1 <0>        -0.0420
     25 C19         8.5782   -5.5325    3.8781 C.ar      1 <0>        -0.0627
     26 C20         8.8529   -6.6438    3.1074 C.ar      1 <0>        -0.1087
     27 C21         8.9718   -6.5245    1.7345 C.ar      1 <0>        -0.0577
     28 C22         8.8161   -5.2913    1.1262 C.ar      1 <0>        -0.0971
     29 C23         8.5367   -4.1734    1.8880 C.ar      1 <0>        -0.0443
     30 Br1         8.9797   -5.1374   -0.7515 Br        1 <0>        -0.0252
     31 H1         -3.7601    2.9063    0.1299 H         1 <0>         0.0699
     32 H2         -2.5210    2.0205   -0.8224 H         1 <0>         0.0727
     33 H3         -2.2647    3.7479   -0.4014 H         1 <0>         0.0723
     34 H4         -3.8036    2.3577    2.3634 H         1 <0>         0.1267
     35 H5         -2.6883    1.6944    4.4543 H         1 <0>         0.1275
     36 H6         -0.2538    1.3333    4.4924 H         1 <0>         0.1351
     37 H7          1.2339    2.1523    0.1831 H         1 <0>         0.0547
     38 H8          0.0652    3.3963   -0.3769 H         1 <0>         0.0759
     39 H9         -0.1911    1.6689   -0.7980 H         1 <0>         0.0752
     40 H10         1.8916    1.1687    1.5540 H         1 <0>         0.4304
     41 H11         3.9969    2.4435    2.7216 H         1 <0>         0.1210
     42 H12         3.5428   -0.3120    4.0109 H         1 <0>         0.0976
     43 H13         3.6266    0.0378    2.2510 H         1 <0>         0.1190
     44 H14         5.7993   -0.8424    3.1113 H         1 <0>         0.1337
     45 H15         5.9631    0.8440    2.5150 H         1 <0>         0.1399
     46 H16         6.0887    2.3252    5.8531 H         1 <0>         0.1449
     47 H17         6.1290    2.6631    4.0893 H         1 <0>         0.1365
     48 H18         3.9227    3.2769    5.0549 H         1 <0>         0.1263
     49 H19         3.7177    1.6004    5.6664 H         1 <0>         0.1015
     50 H20         7.9771    0.8657    3.9053 H         1 <0>         0.1731
     51 H21         7.8065    0.7973    5.6921 H         1 <0>         0.1734
     52 H22         8.4849   -5.6273    4.9499 H         1 <0>         0.1398
     53 H23         8.9749   -7.6087    3.5771 H         1 <0>         0.1482
     54 H24         9.1865   -7.3969    1.1351 H         1 <0>         0.1463
     55 H25         8.4116   -3.2119    1.4123 H         1 <0>         0.1448
     56 H26         5.4890    0.0159    5.3679 H         1 <0>         0.4481
@<TRIPOS>BOND
     1    1    2 1
     2    1   31 1
     3    1   32 1
     4    1   33 1
     5    2    7 ar
     6    2    3 ar
     7    3    4 ar
     8    3   34 1
     9    4    5 ar
    10    4   35 1
    11    5    6 ar
    12    5   36 1
    13    6    7 ar
    14    6    9 1
    15    7    8 1
    16    8   37 1
    17    8   38 1
    18    8   39 1
    19    9   10 am
    20    9   40 1
    21   10   11 2
    22   10   12 1
    23   12   17 1
    24   12   13 1
    25   12   41 1
    26   13   14 1
    27   13   42 1
    28   13   43 1
    29   14   15 1
    30   14   44 1
    31   14   45 1
    32   15   16 1
    33   15   18 1
    34   15   56 1
    35   16   17 1
    36   16   46 1
    37   16   47 1
    38   17   48 1
    39   17   49 1
    40   18   19 1
    41   18   50 1
    42   18   51 1
    43   19   23 1
    44   19   20 2
    45   20   21 1
    46   21   22 2
    47   21   24 1
    48   22   23 1
    49   24   29 ar
    50   24   25 ar
    51   25   26 ar
    52   25   52 1
    53   26   27 ar
    54   26   53 1
    55   27   28 ar
    56   27   54 1
    57   28   29 ar
    58   28   30 1
    59   29   55 1
@<TRIPOS>MOLECULE
ZINC08870635
   55    60     0     0     0
SMALL
USER_CHARGES

@<TRIPOS>ATOM
      1 C1         -0.0717    1.3410   -0.0496 C.ar      1 <0>        -0.0628
      2 C2          1.1067    2.0669   -0.0570 C.ar      1 <0>        -0.1278
      3 C3          2.3220    1.4155   -0.0631 C.ar      1 <0>        -0.0438
      4 C4          2.3618    0.0175   -0.0614 C.ar      1 <0>        -0.1886
      5 C5          1.1667   -0.7088   -0.0535 C.ar      1 <0>        -0.0594
      6 C6         -0.0406   -0.0427   -0.0480 C.ar      1 <0>        -0.1263
      7 C7          3.6546   -0.6856   -0.0684 C.2       1 <0>         0.4156
      8 O1          4.6889   -0.0528   -0.0757 O.2       1 <0>        -0.4068
      9 C8          3.6930   -2.1921   -0.0666 C.3       1 <0>        -0.1835
     10 H1          2.8479   -2.5476   -0.6562 H         1 <0>         0.1973
     11 C9          4.9650   -2.6277   -0.7637 C.2       1 <0>         0.2335
     12 C10         5.8438   -3.4200   -0.0395 C.ar      1 <0>        -0.1724
     13 C11         7.0956   -3.8844   -0.6380 C.ar      1 <0>        -0.0488
     14 C12         7.9479   -4.6704    0.1103 C.ar      1 <0>        -0.0746
     15 C13         7.6219   -5.0194    1.4236 C.ar      1 <0>         0.0458
     16 C14         6.4755   -4.6164    2.0267 C.ar      1 <0>        -0.1804
     17 C15         5.5364   -3.8085    1.3420 C.ar      1 <0>         0.3419
     18 N1          4.4151   -3.4181    1.9422 N.am      1 <0>        -0.5949
     19 C16         3.4981   -2.6623    1.3590 C.2       1 <0>         0.5345
     20 O2          2.4966   -2.3442    1.9711 O.2       1 <0>        -0.4137
     21 C17         7.4031   -3.4928   -2.0278 C.2       1 <0>         0.4376
     22 O3          8.4315   -3.8541   -2.5682 O.2       1 <0>        -0.4016
     23 C18         6.4247   -2.6491   -2.7411 C.ar      1 <0>        -0.1430
     24 C19         5.2367   -2.2396   -2.0922 C.ar      1 <0>        -0.0890
     25 C20         4.3204   -1.4372   -2.7873 C.ar      1 <0>        -0.0365
     26 C21         4.5804   -1.0530   -4.0900 C.ar      1 <0>        -0.0812
     27 C22         5.7399   -1.4506   -4.7247 C.ar      1 <0>        -0.0427
     28 C23         6.6692   -2.2517   -4.0586 C.ar      1 <0>         0.2258
     29 N2          7.8348   -2.6488   -4.7016 N.am      1 <0>        -0.6600
     30 C24         8.3327   -1.9088   -5.7120 C.2       1 <0>         0.5689
     31 O4          7.8206   -0.8434   -5.9947 O.2       1 <0>        -0.5022
     32 C25         9.5015   -2.3929   -6.4763 C.ar      1 <0>        -0.1529
     33 C26        10.0885   -3.6188   -6.1580 C.ar      1 <0>        -0.0810
     34 C27        11.1788   -4.0649   -6.8757 C.ar      1 <0>        -0.1248
     35 C28        11.6907   -3.3003   -7.9090 C.ar      1 <0>        -0.0774
     36 C29        11.1137   -2.0843   -8.2297 C.ar      1 <0>        -0.1246
     37 C30        10.0196   -1.6288   -7.5235 C.ar      1 <0>        -0.0491
     38 H2         -1.0204    1.8570   -0.0407 H         1 <0>         0.1380
     39 H3          1.0743    3.1464   -0.0583 H         1 <0>         0.1398
     40 H4          3.2406    1.9833   -0.0696 H         1 <0>         0.1392
     41 H5          1.1893   -1.7886   -0.0526 H         1 <0>         0.1283
     42 H6         -0.9644   -0.6021   -0.0419 H         1 <0>         0.1385
     43 H7          8.8743   -5.0183   -0.3223 H         1 <0>         0.1742
     44 H8          8.3112   -5.6358    1.9815 H         1 <0>         0.1748
     45 H9          6.2761   -4.9171    3.0447 H         1 <0>         0.1755
     46 H10         3.4086   -1.1186   -2.3039 H         1 <0>         0.1475
     47 H11         3.8682   -0.4353   -4.6169 H         1 <0>         0.1660
     48 H12         5.9280   -1.1423   -5.7425 H         1 <0>         0.1807
     49 H13         8.2904   -3.4587   -4.4233 H         1 <0>         0.4286
     50 H14         9.6901   -4.2164   -5.3515 H         1 <0>         0.1254
     51 H15        11.6342   -5.0130   -6.6303 H         1 <0>         0.1353
     52 H16        12.5447   -3.6540   -8.4676 H         1 <0>         0.1351
     53 H17        11.5181   -1.4923   -9.0375 H         1 <0>         0.1378
     54 H18         9.5674   -0.6816   -7.7777 H         1 <0>         0.1406
     55 H19         4.2611   -3.7031    2.8565 H         1 <0>         0.4437
@<TRIPOS>BOND
     1    1    6 ar
     2    1    2 ar
     3    1   38 1
     4    2    3 ar
     5    2   39 1
     6    3    4 ar
     7    3   40 1
     8    4    5 ar
     9    4    7 1
    10    5    6 ar
    11    5   41 1
    12    6   42 1
    13    7    8 2
    14    7    9 1
    15    9   10 1
    16    9   19 1
    17    9   11 1
    18   11   24 1
    19   11   12 2
    20   12   17 ar
    21   12   13 ar
    22   13   14 ar
    23   13   21 1
    24   14   15 ar
    25   14   43 1
    26   15   16 ar
    27   15   44 1
    28   16   17 ar
    29   16   45 1
    30   17   18 2
    31   18   19 am
    32   18   55 1
    33   19   20 2
    34   21   22 2
    35   21   23 1
    36   23   28 ar
    37   23   24 ar
    38   24   25 ar
    39   25   26 ar
    40   25   46 1
    41   26   27 ar
    42   26   47 1
    43   27   28 ar
    44   27   48 1
    45   28   29 1
    46   29   30 am
    47   29   49 1
    48   30   31 2
    49   30   32 1
    50   32   37 ar
    51   32   33 ar
    52   33   34 ar
    53   33   50 1
    54   34   35 ar
    55   34   51 1
    56   35   36 ar
    57   35   52 1
    58   36   37 ar
    59   36   53 1
    60   37   54 1
@<TRIPOS>MOLECULE
ZINC39977209
   44    47     0     0     0
SMALL
USER_CHARGES

@<TRIPOS>ATOM
      1 C1          0.5728    1.4301   -0.7019 C.ar      1 <0>         0.0536
      2 C2          1.7927    2.1081   -0.5415 C.ar      1 <0>        -0.0618
      3 C3          2.9601    1.4676   -0.3141 C.ar      1 <0>        -0.0851
      4 C4          2.9964    0.0527   -0.2271 C.ar      1 <0>         0.2904
      5 N1          4.1368   -0.5664   -0.0048 N.2       1 <0>        -0.4566
      6 C5          4.2063   -1.9043    0.0831 C.2       1 <0>         0.4427
      7 N2          5.3448   -2.4927    0.3037 N.2       1 <0>        -0.8285
      8 S1          6.7227   -1.5911    0.4784 S.o2      1 <0>         2.6288
      9 O1          6.9699   -0.9792   -0.7801 O.2       1 <0>        -0.9276
     10 O2          6.5670   -0.8387    1.6738 O.2       1 <0>        -0.9275
     11 C6          8.0492   -2.7161    0.7606 C.ar      1 <0>        -0.6472
     12 C7          8.3720   -3.0942    2.0505 C.ar      1 <0>        -0.0086
     13 C8          9.4121   -3.9770    2.2723 C.ar      1 <0>        -0.1080
     14 C9         10.1300   -4.4822    1.2033 C.ar      1 <0>        -0.0294
     15 C10         9.8067   -4.1035   -0.0872 C.ar      1 <0>        -0.1079
     16 C11         8.7630   -3.2248   -0.3084 C.ar      1 <0>        -0.0087
     17 Br1        11.5536   -5.6895    1.5062 Br        1 <0>        -0.0146
     18 C12         2.9413   -2.7166   -0.0776 C.3       1 <0>         0.3122
     19 H1          3.0937   -3.4093   -0.9053 H         1 <0>         0.1906
     20 N3          1.6855   -1.9909   -0.3248 N.pl3     1 <0>        -0.5153
     21 C13         1.7222   -0.6893   -0.3928 C.ar      1 <0>         0.3336
     22 C14         0.4950    0.0828   -0.6375 C.ar      1 <0>        -0.2033
     23 N4          2.7642   -3.5136    1.1388 N.pl3     1 <0>        -0.7162
     24 C15         2.3872   -4.8553    1.0460 C.ar      1 <0>         0.2052
     25 C16         2.0343   -5.3955   -0.1846 C.ar      1 <0>        -0.2050
     26 C17         1.6624   -6.7224   -0.2745 C.ar      1 <0>        -0.0373
     27 C18         1.6399   -7.5145    0.8586 C.ar      1 <0>        -0.1786
     28 C19         1.9908   -6.9803    2.0873 C.ar      1 <0>         0.1552
     29 C20         2.3698   -5.6531    2.1822 C.ar      1 <0>        -0.1983
     30 F1          1.9679   -7.7567    3.1926 F         1 <0>        -0.1248
     31 H2         -0.3271    2.0010   -0.8770 H         1 <0>         0.1821
     32 H3          1.7974    3.1863   -0.6029 H         1 <0>         0.1785
     33 H4          3.8709    2.0363   -0.1982 H         1 <0>         0.1889
     34 H5          7.8116   -2.6994    2.8851 H         1 <0>         0.1512
     35 H6          9.6644   -4.2721    3.2801 H         1 <0>         0.1518
     36 H7         10.3670   -4.4978   -0.9221 H         1 <0>         0.1522
     37 H8          8.5078   -2.9323   -1.3162 H         1 <0>         0.1521
     38 H9         -0.4531   -0.4189   -0.7632 H         1 <0>         0.1860
     39 H10         2.9087   -3.1096    2.0087 H         1 <0>         0.4208
     40 H11         2.0507   -4.7779   -1.0704 H         1 <0>         0.1230
     41 H12         1.3882   -7.1419   -1.2311 H         1 <0>         0.1447
     42 H13         1.3479   -8.5517    0.7855 H         1 <0>         0.1457
     43 H14         2.6478   -5.2372    3.1394 H         1 <0>         0.1432
     44 H15         0.8492   -2.4699   -0.4347 H         1 <0>         0.4576
@<TRIPOS>BOND
     1    1   22 ar
     2    1    2 ar
     3    1   31 1
     4    2    3 ar
     5    2   32 1
     6    3    4 ar
     7    3   33 1
     8    4   21 ar
     9    4    5 2
    10    5    6 1
    11    6    7 2
    12    6   18 1
    13    7    8 1
    14    8    9 2
    15    8   10 2
    16    8   11 1
    17   11   16 ar
    18   11   12 ar
    19   12   13 ar
    20   12   34 1
    21   13   14 ar
    22   13   35 1
    23   14   15 ar
    24   14   17 1
    25   15   16 ar
    26   15   36 1
    27   16   37 1
    28   18   19 1
    29   18   20 1
    30   18   23 1
    31   20   21 2
    32   20   44 1
    33   21   22 ar
    34   22   38 1
    35   23   24 1
    36   23   39 1
    37   24   29 ar
    38   24   25 ar
    39   25   26 ar
    40   25   40 1
    41   26   27 ar
    42   26   41 1
    43   27   28 ar
    44   27   42 1
    45   28   29 ar
    46   28   30 1
    47   29   43 1
@<TRIPOS>MOLECULE
ZINC38971821
   50    53     0     0     0
SMALL
USER_CHARGES

@<TRIPOS>ATOM
      1 C1         -0.0013    2.0154    0.9712 C.3       1 <0>        -0.1209
      2 C2          0.0731    0.5208    0.7936 C.ar      1 <0>        -0.1029
      3 C3          0.1751   -0.0205   -0.4745 C.ar      1 <0>        -0.0478
      4 C4          0.2433   -1.3913   -0.6373 C.ar      1 <0>        -0.1324
      5 C5          0.2100   -2.2213    0.4679 C.ar      1 <0>         0.0142
      6 C6          0.1089   -1.6802    1.7357 C.ar      1 <0>        -0.6535
      7 C7          0.0450   -0.3087    1.8988 C.ar      1 <0>        -0.0180
      8 S1          0.0659   -2.7379    3.1442 S.o2      1 <0>         2.6293
      9 O1          1.1417   -3.6545    2.9967 O.2       1 <0>        -0.9290
     10 O2         -0.0668   -1.8955    4.2808 O.2       1 <0>        -0.9358
     11 N1         -1.3288   -3.6255    3.0475 N.2       1 <0>        -0.8240
     12 C8         -1.6116   -4.4949    3.9723 C.2       1 <0>         0.4368
     13 C9         -2.8788   -5.3157    3.8918 C.3       1 <0>         0.3132
     14 H1         -2.8607   -5.8641    2.9500 H         1 <0>         0.1884
     15 N2         -3.1407   -6.2826    4.9695 N.pl3     1 <0>        -0.5166
     16 C10        -2.2731   -6.3856    5.9373 C.ar      1 <0>         0.3340
     17 C11        -2.4880   -7.3368    7.0379 C.ar      1 <0>        -0.2040
     18 C12        -1.5664   -7.4152    8.0227 C.ar      1 <0>         0.0539
     19 C13        -0.4128   -6.6135    8.0206 C.ar      1 <0>        -0.0642
     20 C14        -0.1473   -5.7182    7.0446 C.ar      1 <0>        -0.0833
     21 C15        -1.0461   -5.5517    5.9606 C.ar      1 <0>         0.2865
     22 N3         -0.7799   -4.6808    5.0097 N.2       1 <0>        -0.4530
     23 N4         -4.0107   -4.3870    3.8407 N.pl3     1 <0>        -0.7165
     24 C16        -5.0567   -4.6095    2.9423 C.ar      1 <0>         0.1828
     25 C17        -5.1067   -5.7896    2.2106 C.ar      1 <0>        -0.1792
     26 C18        -6.1421   -6.0069    1.3231 C.ar      1 <0>        -0.0609
     27 C19        -7.1286   -5.0515    1.1614 C.ar      1 <0>        -0.1158
     28 C20        -7.0823   -3.8751    1.8882 C.ar      1 <0>        -0.0449
     29 C21        -6.0520   -3.6543    2.7827 C.ar      1 <0>        -0.1328
     30 Br1        -8.4338   -2.5718    1.6634 Br        1 <0>        -0.0227
     31 C22         0.2834   -3.7160    0.2903 C.3       1 <0>        -0.1390
     32 H2          1.0058    2.4198    1.0731 H         1 <0>         0.0796
     33 H3         -0.4855    2.4609    0.1022 H         1 <0>         0.0753
     34 H4         -0.5780    2.2466    1.8668 H         1 <0>         0.0727
     35 H5          0.2011    0.6278   -1.3378 H         1 <0>         0.1398
     36 H6          0.3223   -1.8141   -1.6280 H         1 <0>         0.1404
     37 H7         -0.0302    0.1143    2.8897 H         1 <0>         0.1451
     38 H8         -3.3683   -7.9621    7.0588 H         1 <0>         0.1856
     39 H9         -1.7208   -8.1123    8.8331 H         1 <0>         0.1818
     40 H10         0.2909   -6.7171    8.8332 H         1 <0>         0.1782
     41 H11         0.7547   -5.1258    7.0901 H         1 <0>         0.1884
     42 H12        -4.0336   -3.6175    4.4308 H         1 <0>         0.4206
     43 H13        -4.3364   -6.5361    2.3357 H         1 <0>         0.1223
     44 H14        -6.1812   -6.9242    0.7542 H         1 <0>         0.1434
     45 H15        -7.9369   -5.2237    0.4661 H         1 <0>         0.1426
     46 H16        -6.0185   -2.7380    3.3535 H         1 <0>         0.1401
     47 H17         1.3259   -4.0335    0.3105 H         1 <0>         0.1000
     48 H18        -0.2611   -4.2050    1.0980 H         1 <0>         0.0549
     49 H19        -0.1615   -3.9905   -0.6662 H         1 <0>         0.0906
     50 H20        -3.9409   -6.8309    4.9603 H         1 <0>         0.4569
@<TRIPOS>BOND
     1    1    2 1
     2    1   32 1
     3    1   33 1
     4    1   34 1
     5    2    7 ar
     6    2    3 ar
     7    3    4 ar
     8    3   35 1
     9    4    5 ar
    10    4   36 1
    11    5    6 ar
    12    5   31 1
    13    6    7 ar
    14    6    8 1
    15    7   37 1
    16    8    9 2
    17    8   10 2
    18    8   11 1
    19   11   12 2
    20   12   22 1
    21   12   13 1
    22   13   14 1
    23   13   15 1
    24   13   23 1
    25   15   16 2
    26   15   50 1
    27   16   21 ar
    28   16   17 ar
    29   17   18 ar
    30   17   38 1
    31   18   19 ar
    32   18   39 1
    33   19   20 ar
    34   19   40 1
    35   20   21 ar
    36   20   41 1
    37   21   22 2
    38   23   24 1
    39   23   42 1
    40   24   29 ar
    41   24   25 ar
    42   25   26 ar
    43   25   43 1
    44   26   27 ar
    45   26   44 1
    46   27   28 ar
    47   27   45 1
    48   28   29 ar
    49   28   30 1
    50   29   46 1
    51   31   47 1
    52   31   48 1
    53   31   49 1
@<TRIPOS>MOLECULE
ZINC06300988
   72    77     0     0     0
SMALL
USER_CHARGES
3-[(R)-(1-cyclohexyltetrazol-5-yl)-[4-(4-fluorophenyl)-3,6-dihydro-2H-pyridin-1-yl]methyl]-6,8-dimethyl-1H-quinolin-2-one
@<TRIPOS>ATOM
      1 C1          7.3148   -1.0931   -6.1747 C.3       1 <0>        -0.1218
      2 C2          6.6067   -0.0714   -5.3228 C.ar      1 <0>        -0.0980
      3 C3          6.5309    1.2473   -5.7503 C.ar      1 <0>        -0.0402
      4 C4          5.8883    2.1982   -4.9874 C.ar      1 <0>        -0.1211
      5 C5          5.3095    1.8351   -3.7756 C.ar      1 <0>         0.1944
      6 C6          5.3884    0.4972   -3.3456 C.ar      1 <0>        -0.1467
      7 C7          6.0454   -0.4510   -4.1368 C.ar      1 <0>        -0.0518
      8 C8          4.7754    0.1247   -2.0692 C.2       1 <0>         0.0752
      9 C9          4.1515    1.0866   -1.3452 C.2       1 <0>        -0.2827
     10 C10         4.0955    2.4129   -1.8243 C.2       1 <0>         0.5434
     11 O1          3.5253    3.2610   -1.1601 O.2       1 <0>        -0.5233
     12 N1          4.6600    2.7655   -2.9926 N.am      1 <0>        -0.6138
     13 H1          4.6065    3.6871   -3.2904 H         1 <0>         0.4270
     14 C11         3.5102    0.7368   -0.0271 C.3       1 <0>         0.2157
     15 H2          3.7490   -0.2951    0.2306 H         1 <0>         0.1607
     16 C12         2.0156    0.8938   -0.1382 C.2       1 <0>         0.1104
     17 N2          1.3465    2.0207   -0.1592 N.2       1 <0>        -0.2469
     18 N3          0.0938    1.7379   -0.2632 N.2       1 <0>        -0.0566
     19 N4         -0.0536    0.4598   -0.3090 N.2       1 <0>        -0.0520
     20 N5          1.1085   -0.0959   -0.2346 N.pl3     1 <0>        -0.2753
     21 C13         1.3881   -1.5338   -0.2524 C.3       1 <0>         0.1359
     22 C14         0.8750   -2.1371   -1.5615 C.3       1 <0>        -0.1314
     23 C15         1.1670   -3.6388   -1.5800 C.3       1 <0>        -0.1148
     24 C16         0.4631   -4.3098   -0.3988 C.3       1 <0>        -0.1310
     25 C17         0.9762   -3.7066    0.9103 C.3       1 <0>        -0.1154
     26 C18         0.6842   -2.2048    0.9288 C.3       1 <0>        -0.1310
     27 C19         5.4698    1.4555    1.2053 C.3       1 <0>        -0.0008
     28 C20         5.9963    2.6128    2.0577 C.3       1 <0>        -0.1113
     29 C21         5.1327    2.7778    3.2772 C.2       1 <0>        -0.0451
     30 C22         3.9345    2.2455    3.3759 C.2       1 <0>        -0.1769
     31 C23         3.3141    1.4170    2.2879 C.3       1 <0>         0.0378
     32 C24         5.6521    3.5700    4.4117 C.ar      1 <0>        -0.0926
     33 C25         5.8983    4.9350    4.2579 C.ar      1 <0>        -0.0693
     34 C26         6.3776    5.6709    5.3215 C.ar      1 <0>        -0.1504
     35 C27         6.6258    5.0547    6.5376 C.ar      1 <0>         0.1185
     36 C28         6.3884    3.6985    6.6940 C.ar      1 <0>        -0.1513
     37 C29         5.9033    2.9546    5.6387 C.ar      1 <0>        -0.0691
     38 F1          7.1005    5.7790    7.5746 F         1 <0>        -0.1302
     39 C30         5.8136    3.6260   -5.4637 C.3       1 <0>        -0.1235
     40 H3          6.6032   -1.5474   -6.8642 H         1 <0>         0.0791
     41 H4          8.1091   -0.6065   -6.7408 H         1 <0>         0.0751
     42 H5          7.7443   -1.8644   -5.5354 H         1 <0>         0.0737
     43 H6          6.9800    1.5309   -6.6907 H         1 <0>         0.1434
     44 H7          6.1083   -1.4789   -3.8114 H         1 <0>         0.1432
     45 H8          4.8189   -0.8937   -1.7125 H         1 <0>         0.1590
     46 H9          2.4631   -1.6959   -0.1744 H         1 <0>         0.1118
     47 H10        -0.2001   -1.9750   -1.6394 H         1 <0>         0.0905
     48 H11         1.3765   -1.6590   -2.4029 H         1 <0>         0.0737
     49 H12         2.2421   -3.8009   -1.5020 H         1 <0>         0.0686
     50 H13         0.8015   -4.0686   -2.5126 H         1 <0>         0.0822
     51 H14         0.6712   -5.3797   -0.4120 H         1 <0>         0.0772
     52 H15        -0.6119   -4.1478   -0.4768 H         1 <0>         0.0721
     53 H16         2.0513   -3.8687    0.9883 H         1 <0>         0.0687
     54 H17         0.4747   -4.1847    1.7518 H         1 <0>         0.0826
     55 H18         1.0497   -1.7751    1.8614 H         1 <0>         0.0735
     56 H19        -0.3909   -2.0428    0.8508 H         1 <0>         0.0914
     57 H20         5.6603    0.5102    1.7136 H         1 <0>         0.1387
     58 H21         5.9666    1.4561    0.2351 H         1 <0>         0.1340
     59 H22         7.0204    2.4006    2.3646 H         1 <0>         0.1300
     60 H23         5.9761    3.5324    1.4729 H         1 <0>         0.1084
     61 H24         3.3701    2.4120    4.2815 H         1 <0>         0.1549
     62 H25         2.2677    1.6992    2.1713 H         1 <0>         0.1328
     63 H26         3.3731    0.3628    2.5587 H         1 <0>         0.1382
     64 H27         5.7094    5.4152    3.3092 H         1 <0>         0.1354
     65 H28         6.5636    6.7284    5.2050 H         1 <0>         0.1436
     66 H29         6.5832    3.2231    7.6440 H         1 <0>         0.1436
     67 H30         5.7180    1.8978    5.7618 H         1 <0>         0.1363
     68 H31         4.9134    3.7626   -6.0628 H         1 <0>         0.0830
     69 H32         5.7825    4.2948   -4.6035 H         1 <0>         0.0653
     70 H33         6.6910    3.8534   -6.0691 H         1 <0>         0.0865
     71 N6          4.0189    1.6573    1.0151 N.4       1 <0>        -0.3906
     72 H34         3.8514    2.6253    0.7165 H         1 <0>         0.4494
@<TRIPOS>BOND
     1    1    2 1
     2    1   40 1
     3    1   41 1
     4    1   42 1
     5    2    7 ar
     6    2    3 ar
     7    3    4 ar
     8    3   43 1
     9    4    5 ar
    10    4   39 1
    11    5   12 1
    12    5    6 ar
    13    6    7 ar
    14    6    8 1
    15    7   44 1
    16    8    9 2
    17    8   45 1
    18    9   10 1
    19    9   14 1
    20   10   11 2
    21   10   12 am
    22   12   13 1
    23   14   15 1
    24   14   16 1
    25   14   71 1
    26   16   20 1
    27   16   17 2
    28   17   18 1
    29   18   19 2
    30   19   20 1
    31   20   21 1
    32   21   26 1
    33   21   22 1
    34   21   46 1
    35   22   23 1
    36   22   47 1
    37   22   48 1
    38   23   24 1
    39   23   49 1
    40   23   50 1
    41   24   25 1
    42   24   51 1
    43   24   52 1
    44   25   26 1
    45   25   53 1
    46   25   54 1
    47   26   55 1
    48   26   56 1
    49   27   28 1
    50   27   57 1
    51   27   58 1
    52   27   71 1
    53   28   29 1
    54   28   59 1
    55   28   60 1
    56   29   30 2
    57   29   32 1
    58   30   31 1
    59   30   61 1
    60   31   62 1
    61   31   63 1
    62   31   71 1
    63   32   37 ar
    64   32   33 ar
    65   33   34 ar
    66   33   64 1
    67   34   35 ar
    68   34   65 1
    69   35   36 ar
    70   35   38 1
    71   36   37 ar
    72   36   66 1
    73   37   67 1
    74   39   68 1
    75   39   69 1
    76   39   70 1
    77   71   72 1
@<TRIPOS>MOLECULE
ZINC22925280
   66    70     0     0     0
SMALL
USER_CHARGES
N-(3-fluorophenyl)-2-[4-[2-oxo-2-[(3S)-3-phenyl-2,3-dihydro-1,4-benzoxazin-4-yl]ethyl]piperazin-1-yl]acetamide
@<TRIPOS>ATOM
      1 C1          3.2244   -1.7596   -0.9497 C.ar      1 <0>        -0.1061
      2 C2          4.1137   -0.8703   -1.5234 C.ar      1 <0>        -0.1181
      3 C3          3.7143    0.4232   -1.8029 C.ar      1 <0>        -0.1082
      4 C4          2.4255    0.8275   -1.5088 C.ar      1 <0>        -0.1181
      5 C5          1.5377   -0.0603   -0.9303 C.ar      1 <0>        -0.0954
      6 C6          1.9356   -1.3554   -0.6556 C.ar      1 <0>        -0.1153
      7 C7          1.9902    2.2377   -1.8131 C.3       1 <0>         0.1376
      8 H1          2.8851    2.8755   -1.8618 H         1 <0>         0.1177
      9 C8          1.1875    2.2644   -3.1217 C.3       1 <0>         0.0583
     10 O1          0.0212    1.4530   -2.9637 O.3       1 <0>        -0.2976
     11 C9         -0.7462    1.6550   -1.8604 C.ar      1 <0>         0.0973
     12 C10        -2.0651    1.2257   -1.8536 C.ar      1 <0>        -0.1270
     13 C11        -2.8516    1.4235   -0.7345 C.ar      1 <0>        -0.0963
     14 C12        -2.3302    2.0498    0.3827 C.ar      1 <0>        -0.1289
     15 C13        -1.0170    2.4823    0.3846 C.ar      1 <0>        -0.1120
     16 C14        -0.2244    2.2873   -0.7353 C.ar      1 <0>         0.0703
     17 N1          1.1091    2.7314   -0.7408 N.am      1 <0>        -0.5437
     18 C15         1.5659    3.5788    0.2025 C.2       1 <0>         0.5229
     19 O2          0.8000    4.0501    1.0165 O.2       1 <0>        -0.5008
     20 C16         3.0281    3.9408    0.2458 C.3       1 <0>         0.0353
     21 N2          3.2662    4.8861    1.3448 N.3       1 <0>        -0.5218
     22 C17         2.5988    6.1701    1.0888 C.3       1 <0>         0.0177
     23 C18         2.8041    7.0969    2.2894 C.3       1 <0>         0.0052
     24 N3          4.2433    7.2904    2.5152 N.4       1 <0>        -0.3907
     25 C19         4.9106    6.0064    2.7711 C.3       1 <0>        -0.0048
     26 C20         4.7053    5.0796    1.5705 C.3       1 <0>         0.0298
     27 C21         4.4813    8.2357    3.6141 C.3       1 <0>        -0.0254
     28 C22         5.9434    8.5983    3.6569 C.2       1 <0>         0.5052
     29 O3          6.7093    8.1265    2.8434 O.2       1 <0>        -0.5159
     30 N4          6.3999    9.4470    4.5992 N.am      1 <0>        -0.6596
     31 C23         7.7402    9.8486    4.5889 C.ar      1 <0>         0.1540
     32 C24         8.7346    8.9446    4.2374 C.ar      1 <0>        -0.1258
     33 C25        10.0566    9.3438    4.2236 C.ar      1 <0>        -0.0703
     34 C26        10.3931   10.6398    4.5684 C.ar      1 <0>        -0.1521
     35 C27         9.4054   11.5428    4.9246 C.ar      1 <0>         0.1237
     36 C28         8.0790   11.1493    4.9354 C.ar      1 <0>        -0.1707
     37 F1          9.7371   12.8083    5.2619 F         1 <0>        -0.1285
     38 H2          3.5365   -2.7701   -0.7310 H         1 <0>         0.1266
     39 H3          5.1207   -1.1860   -1.7529 H         1 <0>         0.1273
     40 H4          4.4092    1.1181   -2.2508 H         1 <0>         0.1234
     41 H5          0.5321    0.2568   -0.6965 H         1 <0>         0.1264
     42 H6          1.2409   -2.0501   -0.2071 H         1 <0>         0.1253
     43 H7          0.8932    3.2994   -3.3503 H         1 <0>         0.0771
     44 H8          1.8076    1.8702   -3.9403 H         1 <0>         0.1295
     45 H9         -2.4778    0.7362   -2.7234 H         1 <0>         0.1386
     46 H10        -3.8781    1.0880   -0.7327 H         1 <0>         0.1342
     47 H11        -2.9492    2.2009    1.2547 H         1 <0>         0.1306
     48 H12        -0.6098    2.9715    1.2571 H         1 <0>         0.1627
     49 H13         3.6262    3.0319    0.4078 H         1 <0>         0.1242
     50 H14         3.3191    4.4060   -0.7076 H         1 <0>         0.0796
     51 H15         3.0287    6.6337    0.1887 H         1 <0>         0.0595
     52 H16         1.5229    6.0000    0.9354 H         1 <0>         0.1415
     53 H17         2.3297    8.0686    2.0878 H         1 <0>         0.1392
     54 H18         2.3492    6.6452    3.1833 H         1 <0>         0.1414
     55 H19         5.9865    6.1765    2.9245 H         1 <0>         0.1495
     56 H20         4.4807    5.5427    3.6712 H         1 <0>         0.1349
     57 H21         5.1789    4.1073    1.7714 H         1 <0>         0.1263
     58 H22         5.1594    5.5308    0.6759 H         1 <0>         0.0660
     59 H23         3.8827    9.1443    3.4523 H         1 <0>         0.1655
     60 H24         4.1908    7.7703    4.5675 H         1 <0>         0.1622
     61 H25         5.7188    9.8239    5.3764 H         1 <0>         0.4498
     62 H26         8.4737    7.9309    3.9714 H         1 <0>         0.1401
     63 H27        10.8291    8.6416    3.9470 H         1 <0>         0.1428
     64 H28        11.4281   10.9483    4.5604 H         1 <0>         0.1445
     65 H29         7.3083   11.8533    5.2127 H         1 <0>         0.1429
     66 H30         4.6759    7.7216    1.6004 H         1 <0>         0.4463
@<TRIPOS>BOND
     1    1    6 ar
     2    1    2 ar
     3    1   38 1
     4    2    3 ar
     5    2   39 1
     6    3    4 ar
     7    3   40 1
     8    4    5 ar
     9    4    7 1
    10    5    6 ar
    11    5   41 1
    12    6   42 1
    13    7    8 1
    14    7   17 1
    15    7    9 1
    16    9   10 1
    17    9   43 1
    18    9   44 1
    19   10   11 1
    20   11   16 ar
    21   11   12 ar
    22   12   13 ar
    23   12   45 1
    24   13   14 ar
    25   13   46 1
    26   14   15 ar
    27   14   47 1
    28   15   16 ar
    29   15   48 1
    30   16   17 1
    31   17   18 am
    32   18   19 2
    33   18   20 1
    34   20   21 1
    35   20   49 1
    36   20   50 1
    37   21   26 1
    38   21   22 1
    39   22   23 1
    40   22   51 1
    41   22   52 1
    42   23   24 1
    43   23   53 1
    44   23   54 1
    45   24   25 1
    46   24   27 1
    47   24   66 1
    48   25   26 1
    49   25   55 1
    50   25   56 1
    51   26   57 1
    52   26   58 1
    53   27   28 1
    54   27   59 1
    55   27   60 1
    56   28   29 2
    57   28   30 am
    58   30   31 1
    59   30   61 1
    60   31   36 ar
    61   31   32 ar
    62   32   33 ar
    63   32   62 1
    64   33   34 ar
    65   33   63 1
    66   34   35 ar
    67   34   64 1
    68   35   36 ar
    69   35   37 1
    70   36   65 1
@<TRIPOS>MOLECULE
ZINC36799235
   55    59     0     0     0
SMALL
USER_CHARGES

@<TRIPOS>ATOM
      1 C1          0.3081    2.2391   -1.5098 C.3       1 <0>        -0.1781
      2 C2          0.4710    0.7449   -1.4008 C.2       1 <0>         0.5117
      3 O1          0.7968    0.2435   -0.3394 O.2       1 <0>        -0.5061
      4 N1          0.2608   -0.0199   -2.4544 N.am      1 <0>        -0.6382
      5 C3          0.2766   -1.3750   -2.3258 C.2       1 <0>         0.2707
      6 C4          0.4191   -2.1841   -3.4670 C.2       1 <0>        -0.1510
      7 C5          0.4368   -3.5378   -3.3518 C.2       1 <0>        -0.0020
      8 C6          0.3122   -4.1362   -2.0855 C.2       1 <0>        -0.1822
      9 C7          0.3289   -5.5398   -1.9448 C.2       1 <0>         0.1734
     10 C8          0.2034   -6.0772   -0.6792 C.2       1 <0>        -0.2438
     11 C9          0.0650   -5.2389    0.4177 C.2       1 <0>         0.4636
     12 O2         -0.0560   -5.7760    1.6468 O.3       1 <0>        -0.3618
     13 O3          0.0497   -3.9088    0.2800 O.3       1 <0>        -0.1988
     14 C10         0.1686   -3.3312   -0.9333 C.2       1 <0>         0.1942
     15 C11         0.1572   -1.9538   -1.0614 C.2       1 <0>        -0.1801
     16 C12         0.4797   -6.4329   -3.1492 C.3       1 <0>        -0.1199
     17 S1          2.1619   -7.1103   -3.1928 S.3       1 <0>         0.0543
     18 C13         2.1782   -8.1184   -4.6378 C.2       1 <0>         0.1476
     19 N2          1.1787   -8.3033   -5.4698 N.2       1 <0>        -0.2767
     20 N3          1.5315   -9.0977   -6.4162 N.2       1 <0>        -0.2530
     21 C14         2.7812   -9.4703   -6.2470 C.2       1 <0>         0.2939
     22 N4          3.2355   -8.8490   -5.1048 N.pl3     1 <0>        -0.4472
     23 C15         4.5715   -8.9515   -4.5126 C.3       1 <0>         0.1436
     24 C16         5.4250   -7.8080   -4.9974 C.ar      1 <0>        -0.1290
     25 C17         6.0880   -7.9047   -6.2065 C.ar      1 <0>        -0.0937
     26 C18         6.8709   -6.8558   -6.6513 C.ar      1 <0>        -0.1159
     27 C19         6.9904   -5.7100   -5.8871 C.ar      1 <0>        -0.0991
     28 C20         6.3267   -5.6131   -4.6784 C.ar      1 <0>        -0.1200
     29 C21         5.5403   -6.6603   -4.2357 C.ar      1 <0>        -0.0931
     30 C22         3.5504  -10.3747   -7.1167 C.2       1 <0>        -0.1242
     31 C23         3.2865  -10.7680   -8.4044 C.2       1 <0>        -0.0793
     32 C24         4.1616  -11.6318   -9.0238 C.2       1 <0>        -0.1624
     33 C25         5.2547  -12.0667   -8.3451 C.2       1 <0>        -0.1396
     34 S2          5.0742  -11.2395   -6.7735 S.3       1 <0>         0.0664
     35 H1          1.2586    2.6881   -1.7980 H         1 <0>         0.1107
     36 H2         -0.4454    2.4684   -2.2633 H         1 <0>         0.0938
     37 H3         -0.0068    2.6414   -0.5470 H         1 <0>         0.1105
     38 H4          0.0950    0.3832   -3.3210 H         1 <0>         0.4337
     39 H5          0.5146   -1.7269   -4.4407 H         1 <0>         0.1654
     40 H6          0.5461   -4.1537   -4.2322 H         1 <0>         0.1673
     41 H7          0.2127   -7.1486   -0.5432 H         1 <0>         0.2031
     42 H8          0.0520   -1.3288   -0.1868 H         1 <0>         0.2012
     43 H9         -0.2394   -7.2497   -3.0883 H         1 <0>         0.1505
     44 H10         0.2972   -5.8550   -4.0552 H         1 <0>         0.1365
     45 H11         4.4916   -8.9101   -3.4263 H         1 <0>         0.1122
     46 H12         5.0282   -9.8963   -4.8076 H         1 <0>         0.1109
     47 H13         5.9947   -8.7998   -6.8036 H         1 <0>         0.1271
     48 H14         7.3895   -6.9315   -7.5956 H         1 <0>         0.1300
     49 H15         7.6027   -4.8908   -6.2342 H         1 <0>         0.1291
     50 H16         6.4203   -4.7181   -4.0812 H         1 <0>         0.1276
     51 H17         5.0188   -6.5830   -3.2932 H         1 <0>         0.1222
     52 H18         2.4096  -10.4076   -8.9216 H         1 <0>         0.1488
     53 H19         3.9808  -11.9598  -10.0368 H         1 <0>         0.1496
     54 H20         6.0347  -12.7378   -8.6733 H         1 <0>         0.1979
     55 H21        -0.1479   -5.1230    2.3540 H         1 <0>         0.4476
@<TRIPOS>BOND
     1    1    2 1
     2    1   35 1
     3    1   36 1
     4    1   37 1
     5    2    3 2
     6    2    4 am
     7    4    5 2
     8    4   38 1
     9    5   15 1
    10    5    6 1
    11    6    7 2
    12    6   39 1
    13    7    8 1
    14    7   40 1
    15    8   14 1
    16    8    9 2
    17    9   10 1
    18    9   16 1
    19   10   11 2
    20   10   41 1
    21   11   12 1
    22   11   13 1
    23   12   55 1
    24   13   14 1
    25   14   15 2
    26   15   42 1
    27   16   17 1
    28   16   43 1
    29   16   44 1
    30   17   18 1
    31   18   22 1
    32   18   19 2
    33   19   20 1
    34   20   21 2
    35   21   22 1
    36   21   30 1
    37   22   23 1
    38   23   24 1
    39   23   45 1
    40   23   46 1
    41   24   29 ar
    42   24   25 ar
    43   25   26 ar
    44   25   47 1
    45   26   27 ar
    46   26   48 1
    47   27   28 ar
    48   27   49 1
    49   28   29 ar
    50   28   50 1
    51   29   51 1
    52   30   34 1
    53   30   31 2
    54   31   32 1
    55   31   52 1
    56   32   33 2
    57   32   53 1
    58   33   34 1
    59   33   54 1
@<TRIPOS>MOLECULE
ZINC46841262
   60    63     0     0     0
SMALL
USER_CHARGES

@<TRIPOS>ATOM
      1 C1         -0.0455   -2.1685    3.7281 C.3       1 <0>        -0.1521
      2 C2         -0.9873   -1.7726    2.5892 C.3       1 <0>         0.0731
      3 H1         -2.0127   -2.0236    2.8607 H         1 <0>         0.0763
      4 C3         -0.5955   -2.5288    1.3146 C.3       1 <0>         0.0642
      5 N1         -1.3891   -1.9954    0.1960 N.pl3     1 <0>        -0.5845
      6 C4         -1.4177   -0.5370    0.0019 C.3       1 <0>         0.0784
      7 C5         -1.7695    0.1221    1.3405 C.3       1 <0>         0.0716
      8 H2         -1.6612    1.2032    1.2535 H         1 <0>         0.1346
      9 O1         -0.8865   -0.3662    2.3531 O.3       1 <0>        -0.3552
     10 C6         -3.2136   -0.2185    1.7139 C.3       1 <0>        -0.1901
     11 C7         -2.0905   -2.8441   -0.6524 C.ar      1 <0>         0.4492
     12 C8         -2.9269   -2.3081   -1.6266 C.ar      1 <0>        -0.1970
     13 C9         -3.6189   -3.1641   -2.4640 C.ar      1 <0>         0.0522
     14 C10        -3.4507   -4.5328   -2.2986 C.ar      1 <0>        -0.1574
     15 C11        -2.6045   -4.9955   -1.3111 C.ar      1 <0>         0.1660
     16 N2         -1.9526   -4.1551   -0.5298 N.ar      1 <0>        -0.5063
     17 C12        -4.1849   -5.5028   -3.1879 C.3       1 <0>         0.1661
     18 N3         -3.3695   -5.7957   -4.3692 N.am      1 <0>        -0.7423
     19 C13        -3.8273   -6.6448   -5.3104 C.2       1 <0>         0.5211
     20 O2         -4.9143   -7.1665   -5.1794 O.2       1 <0>        -0.5014
     21 C14        -2.9885   -6.9460   -6.5256 C.3       1 <0>        -0.0673
     22 C15        -3.7228   -7.9161   -7.4150 C.2       1 <0>         0.0657
     23 C16        -3.9455   -7.6085   -8.7205 C.2       1 <0>        -0.1928
     24 S1         -4.8225   -9.0712   -9.2590 S.3       1 <0>         0.0425
     25 C17        -4.7967   -9.9301   -7.6909 C.2       1 <0>         0.1468
     26 N4         -4.1436   -9.0613   -6.9320 N.2       1 <0>        -0.4684
     27 C18        -5.3501  -11.2549   -7.3373 C.ar      1 <0>         0.0166
     28 C19        -5.2244  -11.7421   -6.0357 C.ar      1 <0>        -0.0712
     29 C20        -5.7429  -12.9791   -5.7123 C.ar      1 <0>        -0.0694
     30 C21        -6.3860  -13.7362   -6.6753 C.ar      1 <0>        -0.1649
     31 C22        -6.5136  -13.2591   -7.9677 C.ar      1 <0>        -0.0648
     32 C23        -6.0053  -12.0209   -8.3024 C.ar      1 <0>        -0.0938
     33 C24        -6.9495  -15.0867   -6.3151 C.3       1 <0>         0.5075
     34 F1         -8.2714  -14.9397   -5.8814 F         1 <0>        -0.1730
     35 F2         -6.9171  -15.9201   -7.4383 F         1 <0>        -0.1734
     36 F3         -6.1831  -15.6537   -5.2913 F         1 <0>        -0.1745
     37 H3         -0.3236   -1.6291    4.6336 H         1 <0>         0.0818
     38 H4         -0.1216   -3.2411    3.9063 H         1 <0>         0.0788
     39 H5          0.9796   -1.9172    3.4559 H         1 <0>         0.0739
     40 H6          0.4660   -2.3840    1.1135 H         1 <0>         0.1104
     41 H7         -0.8045   -3.5913    1.4391 H         1 <0>         0.0878
     42 H8         -0.4390   -0.1917   -0.3314 H         1 <0>         0.1071
     43 H9         -2.1712   -0.2805   -0.7428 H         1 <0>         0.1119
     44 H10        -3.3206   -1.2996    1.8025 H         1 <0>         0.0547
     45 H11        -3.4629    0.2505    2.6658 H         1 <0>         0.0802
     46 H12        -3.8859    0.1510    0.9397 H         1 <0>         0.0764
     47 H13        -3.0347   -1.2383   -1.7273 H         1 <0>         0.1817
     48 H14        -4.2755   -2.7770   -3.2290 H         1 <0>         0.1766
     49 H15        -2.4711   -6.0590   -1.1788 H         1 <0>         0.2082
     50 H16        -4.3752   -6.4257   -2.6399 H         1 <0>         0.0929
     51 H17        -5.1325   -5.0638   -3.5002 H         1 <0>         0.0968
     52 H18        -2.5001   -5.3784   -4.4740 H         1 <0>         0.4015
     53 H19        -2.7983   -6.0232   -7.0736 H         1 <0>         0.1129
     54 H20        -2.0410   -7.3851   -6.2134 H         1 <0>         0.1122
     55 H21        -3.6696   -6.7255   -9.2778 H         1 <0>         0.2025
     56 H22        -4.7220  -11.1524   -5.2833 H         1 <0>         0.1463
     57 H23        -5.6463  -13.3573   -4.7054 H         1 <0>         0.1452
     58 H24        -7.0163  -13.8551   -8.7150 H         1 <0>         0.1477
     59 H25        -6.1101  -11.6473   -9.3103 H         1 <0>         0.1405
     60 H26        -1.3610   -4.5067    0.1538 H         1 <0>         0.4401
@<TRIPOS>BOND
     1    1    2 1
     2    1   37 1
     3    1   38 1
     4    1   39 1
     5    2    3 1
     6    2    9 1
     7    2    4 1
     8    4    5 1
     9    4   40 1
    10    4   41 1
    11    5    6 1
    12    5   11 1
    13    6    7 1
    14    6   42 1
    15    6   43 1
    16    7    8 1
    17    7    9 1
    18    7   10 1
    19   10   44 1
    20   10   45 1
    21   10   46 1
    22   11   16 ar
    23   11   12 ar
    24   12   13 ar
    25   12   47 1
    26   13   14 ar
    27   13   48 1
    28   14   15 ar
    29   14   17 1
    30   15   16 ar
    31   15   49 1
    32   16   60 1
    33   17   18 1
    34   17   50 1
    35   17   51 1
    36   18   19 am
    37   18   52 1
    38   19   20 2
    39   19   21 1
    40   21   22 1
    41   21   53 1
    42   21   54 1
    43   22   26 1
    44   22   23 2
    45   23   24 1
    46   23   55 1
    47   24   25 1
    48   25   26 2
    49   25   27 1
    50   27   32 ar
    51   27   28 ar
    52   28   29 ar
    53   28   56 1
    54   29   30 ar
    55   29   57 1
    56   30   31 ar
    57   30   33 1
    58   31   32 ar
    59   31   58 1
    60   32   59 1
    61   33   34 1
    62   33   35 1
    63   33   36 1
@<TRIPOS>MOLECULE
ZINC64623137
   60    64     0     0     0
SMALL
USER_CHARGES

@<TRIPOS>ATOM
      1 C1         -2.2010    2.1398   -0.7417 C.3       1 <0>         0.0219
      2 O1         -1.7621    0.8275   -1.0987 O.3       1 <0>        -0.3095
      3 C2         -2.6624   -0.1817   -0.9651 C.ar      1 <0>         0.1564
      4 C3         -3.9436    0.0863   -0.5055 C.ar      1 <0>        -0.2017
      5 C4         -4.8570   -0.9413   -0.3711 C.ar      1 <0>        -0.0423
      6 C5         -4.4951   -2.2361   -0.6938 C.ar      1 <0>        -0.1771
      7 C6         -3.2187   -2.5060   -1.1516 C.ar      1 <0>        -0.0954
      8 C7         -2.3035   -1.4809   -1.2936 C.ar      1 <0>        -0.1455
      9 C8         -5.4934   -3.3553   -0.5457 C.3       1 <0>         0.2214
     10 H1         -6.4823   -2.9432   -0.3448 H         1 <0>         0.1457
     11 C9         -5.5306   -4.1905   -1.8301 C.3       1 <0>         0.0781
     12 H2         -6.3758   -4.8786   -1.8152 H         1 <0>         0.1838
     13 C10        -4.2153   -4.9568   -1.8886 C.2       1 <0>         0.0776
     14 C11        -3.6514   -4.6456   -3.0497 C.ar      1 <0>        -0.1617
     15 C12        -2.4171   -5.1190   -3.6967 C.ar      1 <0>         0.0022
     16 C13        -2.1261   -4.5705   -4.9069 C.ar      1 <0>        -0.0772
     17 C14        -2.9311   -3.6099   -5.5297 C.ar      1 <0>         0.0484
     18 C15        -4.0848   -3.1220   -5.0089 C.ar      1 <0>        -0.1793
     19 C16        -4.4976   -3.6258   -3.7409 C.ar      1 <0>         0.3384
     20 N1         -5.5738   -3.3478   -3.0265 N.pl3     1 <0>        -0.5665
     21 Cl1        -0.6823   -5.0881   -5.7201 Cl        1 <0>        -0.0180
     22 C17        -3.7221   -5.8088   -0.7448 C.3       1 <0>        -0.1070
     23 C18        -3.7976   -4.9365    0.5216 C.3       1 <0>         0.0973
     24 N2         -5.0892   -4.2403    0.5579 N.am      1 <0>        -0.6203
     25 C19        -5.9131   -4.4138    1.6103 C.2       1 <0>         0.7148
     26 O2         -7.0217   -3.9145    1.6032 O.2       1 <0>        -0.5528
     27 N3         -5.5082   -5.1408    2.6705 N.am      1 <0>        -0.6738
     28 C20        -6.3863   -5.3745    3.7353 C.ar      1 <0>         0.1383
     29 C21        -7.3563   -4.4321    4.0557 C.ar      1 <0>        -0.0855
     30 C22        -8.2261   -4.6579    5.1059 C.ar      1 <0>        -0.1103
     31 C23        -8.1372   -5.8207    5.8439 C.ar      1 <0>        -0.0681
     32 C24        -7.1663   -6.7738    5.5303 C.ar      1 <0>        -0.1041
     33 C25        -6.2919   -6.5480    4.4663 C.ar      1 <0>        -0.0800
     34 C26        -7.0682   -8.0194    6.3188 C.2       1 <0>         0.5079
     35 O3         -6.2228   -8.8471    6.0441 O.2       1 <0>        -0.5019
     36 O4         -7.9165   -8.2370    7.3425 O.3       1 <0>        -0.3466
     37 C27        -7.7645   -9.4625    8.0615 C.3       1 <0>         0.0335
     38 H3         -1.3877    2.8492   -0.8951 H         1 <0>         0.1103
     39 H4         -3.0504    2.4207   -1.3643 H         1 <0>         0.0609
     40 H5         -2.4995    2.1505    0.3065 H         1 <0>         0.0621
     41 H6         -4.2266    1.0975   -0.2527 H         1 <0>         0.1398
     42 H7         -5.8546   -0.7331   -0.0134 H         1 <0>         0.1350
     43 H8         -2.9383   -3.5183   -1.4026 H         1 <0>         0.1281
     44 H9         -1.3079   -1.6915   -1.6555 H         1 <0>         0.1385
     45 H10        -1.7790   -5.8591   -3.2368 H         1 <0>         0.1799
     46 H11        -2.6124   -3.2317   -6.4898 H         1 <0>         0.1673
     47 H12        -4.6677   -2.3800   -5.5344 H         1 <0>         0.1778
     48 H13        -4.3589   -6.6861   -0.6318 H         1 <0>         0.1342
     49 H14        -2.6918   -6.1153   -0.9255 H         1 <0>         0.1293
     50 H15        -3.7005   -5.5683    1.4045 H         1 <0>         0.1118
     51 H16        -2.9904   -4.2043    0.5074 H         1 <0>         0.0996
     52 H17        -4.6084   -5.5022    2.6956 H         1 <0>         0.4101
     53 H18        -7.4304   -3.5199    3.4823 H         1 <0>         0.1517
     54 H19        -8.9778   -3.9218    5.3499 H         1 <0>         0.1404
     55 H20        -8.8182   -5.9931    6.6642 H         1 <0>         0.1445
     56 H21        -5.5417   -7.2835    4.2160 H         1 <0>         0.1417
     57 H22        -8.5078   -9.5114    8.8573 H         1 <0>         0.1078
     58 H23        -7.9046  -10.3027    7.3813 H         1 <0>         0.0637
     59 H24        -6.7652   -9.5083    8.4944 H         1 <0>         0.0641
     60 H25        -6.2666   -2.7041   -3.2421 H         1 <0>         0.4604
@<TRIPOS>BOND
     1    1    2 1
     2    1   38 1
     3    1   39 1
     4    1   40 1
     5    2    3 1
     6    3    8 ar
     7    3    4 ar
     8    4    5 ar
     9    4   41 1
    10    5    6 ar
    11    5   42 1
    12    6    7 ar
    13    6    9 1
    14    7    8 ar
    15    7   43 1
    16    8   44 1
    17    9   10 1
    18    9   24 1
    19    9   11 1
    20   11   12 1
    21   11   20 1
    22   11   13 1
    23   13   14 2
    24   13   22 1
    25   14   19 ar
    26   14   15 ar
    27   15   16 ar
    28   15   45 1
    29   16   17 ar
    30   16   21 1
    31   17   18 ar
    32   17   46 1
    33   18   19 ar
    34   18   47 1
    35   19   20 2
    36   20   60 1
    37   22   23 1
    38   22   48 1
    39   22   49 1
    40   23   24 1
    41   23   50 1
    42   23   51 1
    43   24   25 am
    44   25   26 2
    45   25   27 am
    46   27   28 1
    47   27   52 1
    48   28   33 ar
    49   28   29 ar
    50   29   30 ar
    51   29   53 1
    52   30   31 ar
    53   30   54 1
    54   31   32 ar
    55   31   55 1
    56   32   33 ar
    57   32   34 1
    58   33   56 1
    59   34   35 2
    60   34   36 1
    61   36   37 1
    62   37   57 1
    63   37   58 1
    64   37   59 1
@<TRIPOS>MOLECULE
ZINC19961918
   62    65     0     0     0
SMALL
USER_CHARGES
N-(3,5-dichlorophenyl)-2-[(2S)-1-[2-[4-(4-fluorophenyl)piperazin-1-yl]acetyl]-3-oxo-piperazin-2-yl]acetamide
@<TRIPOS>ATOM
      1 C1         -4.3685    7.7273   -2.8803 C.ar      1 <0>        -0.1342
      2 C2         -5.7127    7.9187   -2.6267 C.ar      1 <0>        -0.1265
      3 C3         -6.4869    6.8689   -2.1621 C.ar      1 <0>         0.0946
      4 C4         -5.9170    5.6240   -1.9558 C.ar      1 <0>        -0.1264
      5 C5         -4.5744    5.4267   -2.2131 C.ar      1 <0>        -0.0981
      6 C6         -3.7959    6.4781   -2.6792 C.ar      1 <0>         0.0777
      7 N1         -2.4365    6.2808   -2.9399 N.pl3     1 <0>        -0.4852
      8 C7         -1.8077    7.5185   -3.4220 C.3       1 <0>         0.0192
      9 C8         -0.3434    7.2414   -3.7705 C.3       1 <0>         0.0009
     10 N2          0.3520    6.7293   -2.5815 N.4       1 <0>        -0.3896
     11 C9         -0.2768    5.4916   -2.0994 C.3       1 <0>        -0.0081
     12 C10        -1.7411    5.7687   -1.7509 C.3       1 <0>         0.0305
     13 C11         1.7803    6.5220   -2.8555 C.3       1 <0>        -0.0288
     14 C12         2.5031    6.2359   -1.5644 C.2       1 <0>         0.5124
     15 O1          1.8888    6.2074   -0.5190 O.2       1 <0>        -0.4778
     16 N3          3.8320    6.0116   -1.5715 N.am      1 <0>        -0.5997
     17 C13         4.6070    6.0385   -2.8235 C.3       1 <0>         0.0778
     18 C14         5.6487    7.1538   -2.7164 C.3       1 <0>         0.0997
     19 N4          6.3404    7.0933   -1.4360 N.am      1 <0>        -0.7304
     20 C15         5.8595    6.4992   -0.3429 C.2       1 <0>         0.5132
     21 O2          6.4935    6.5833    0.6876 O.2       1 <0>        -0.5241
     22 C16         4.5670    5.7296   -0.3295 C.3       1 <0>         0.1527
     23 H1          3.9454    6.0546    0.5179 H         1 <0>         0.1453
     24 C17         4.8636    4.2314   -0.2385 C.3       1 <0>        -0.1499
     25 C18         3.5692    3.4695   -0.1162 C.2       1 <0>         0.5195
     26 O3          2.5133    4.0661   -0.1030 O.2       1 <0>        -0.5064
     27 N5          3.5848    2.1252   -0.0214 N.am      1 <0>        -0.6824
     28 C19         2.3818    1.4109   -0.0052 C.ar      1 <0>         0.1737
     29 C20         1.2629    1.9470    0.6184 C.ar      1 <0>        -0.1146
     30 C21         0.0754    1.2395    0.6325 C.ar      1 <0>        -0.0079
     31 C22         0.0011   -0.0020    0.0259 C.ar      1 <0>        -0.1170
     32 C23         1.1147   -0.5388   -0.5958 C.ar      1 <0>        -0.0042
     33 C24         2.3046    0.1647   -0.6128 C.ar      1 <0>        -0.1339
     34 Cl1         1.0173   -2.0966   -1.3557 Cl        1 <0>        -0.0418
     35 Cl2        -1.3257    1.9123    1.4057 Cl        1 <0>        -0.0478
     36 F1         -7.8004    7.0595   -1.9101 F         1 <0>        -0.1319
     37 H2         -3.7641    8.5474   -3.2388 H         1 <0>         0.1367
     38 H3         -6.1593    8.8888   -2.7872 H         1 <0>         0.1427
     39 H4         -6.5226    4.8067   -1.5930 H         1 <0>         0.1448
     40 H5         -4.1302    4.4556   -2.0517 H         1 <0>         0.1381
     41 H6         -2.3378    7.8743   -4.3178 H         1 <0>         0.1328
     42 H7         -1.8596    8.2864   -2.6361 H         1 <0>         0.0739
     43 H8         -0.2933    6.4940   -4.5761 H         1 <0>         0.1392
     44 H9          0.1367    8.1731   -4.1044 H         1 <0>         0.1415
     45 H10        -0.2249    4.7238   -2.8854 H         1 <0>         0.1303
     46 H11         0.2533    5.1358   -1.2036 H         1 <0>         0.1628
     47 H12        -1.7922    6.5165   -0.9458 H         1 <0>         0.0727
     48 H13        -2.2222    4.8374   -1.4174 H         1 <0>         0.1286
     49 H14         1.9023    5.6701   -3.5406 H         1 <0>         0.1552
     50 H15         2.2002    7.4275   -3.3179 H         1 <0>         0.1592
     51 H16         5.1051    5.0683   -2.9673 H         1 <0>         0.0958
     52 H17         3.9309    6.2324   -3.6692 H         1 <0>         0.1048
     53 H18         6.3873    7.0445   -3.5242 H         1 <0>         0.1023
     54 H19         5.1506    8.1305   -2.8048 H         1 <0>         0.0735
     55 H20         7.3308    7.5586   -1.3234 H         1 <0>         0.4371
     56 H21         5.3956    3.9072   -1.1451 H         1 <0>         0.1089
     57 H22         5.4897    4.0345    0.6442 H         1 <0>         0.1291
     58 H23         4.5434    1.5895    0.0432 H         1 <0>         0.4448
     59 H24         1.3204    2.9161    1.0917 H         1 <0>         0.1568
     60 H25        -0.9276   -0.5532    0.0381 H         1 <0>         0.1475
     61 H26         3.1736   -0.2548   -1.0979 H         1 <0>         0.1441
     62 H27         0.2677    7.4851   -1.7868 H         1 <0>         0.4467
@<TRIPOS>BOND
     1    1    6 ar
     2    1    2 ar
     3    1   37 1
     4    2    3 ar
     5    2   38 1
     6    3    4 ar
     7    3   36 1
     8    4    5 ar
     9    4   39 1
    10    5    6 ar
    11    5   40 1
    12    6    7 1
    13    7   12 1
    14    7    8 1
    15    8    9 1
    16    8   41 1
    17    8   42 1
    18    9   10 1
    19    9   43 1
    20    9   44 1
    21   10   11 1
    22   10   13 1
    23   10   62 1
    24   11   12 1
    25   11   45 1
    26   11   46 1
    27   12   47 1
    28   12   48 1
    29   13   14 1
    30   13   49 1
    31   13   50 1
    32   14   15 2
    33   14   16 am
    34   16   22 1
    35   16   17 1
    36   17   18 1
    37   17   51 1
    38   17   52 1
    39   18   19 1
    40   18   53 1
    41   18   54 1
    42   19   20 am
    43   19   55 1
    44   20   21 2
    45   20   22 1
    46   22   23 1
    47   22   24 1
    48   24   25 1
    49   24   56 1
    50   24   57 1
    51   25   26 2
    52   25   27 am
    53   27   28 1
    54   27   58 1
    55   28   33 ar
    56   28   29 ar
    57   29   30 ar
    58   29   59 1
    59   30   31 ar
    60   30   35 1
    61   31   32 ar
    62   31   60 1
    63   32   33 ar
    64   32   34 1
    65   33   61 1
@<TRIPOS>MOLECULE
ZINC35337733
   63    66     0     0     0
SMALL
USER_CHARGES

@<TRIPOS>ATOM
      1 C1         -0.5501    1.6004    0.0519 C.3       1 <0>        -0.1151
      2 C2         -0.3193    0.1117    0.0106 C.2       1 <0>         0.1818
      3 C3         -1.3862   -0.7335    0.0442 C.2       1 <0>        -0.2274
      4 C4         -1.1547   -2.2196   -0.0701 C.3       1 <0>         0.2223
      5 H1         -1.8831   -2.7509    0.5425 H         1 <0>         0.1319
      6 N1          0.2069   -2.5272    0.4033 N.pl3     1 <0>        -0.5230
      7 C5          0.4066   -3.7590    1.1585 C.3       1 <0>         0.0810
      8 C6          1.6960   -4.4787    0.7938 C.3       1 <0>        -0.1486
      9 C7          2.8942   -3.6112    1.2059 C.3       1 <0>        -0.1261
     10 S1          2.8964   -2.1421    0.1337 S.3       1 <0>         0.0679
     11 C8          1.2057   -1.6359    0.1493 C.cat     1 <0>         0.4448
     12 N2          0.9229   -0.3566   -0.0635 N.pl3     1 <0>        -0.5341
     13 C9         -1.2997   -2.6440   -1.5088 C.ar      1 <0>        -0.1518
     14 C10        -0.2535   -2.4540   -2.3930 C.ar      1 <0>        -0.0829
     15 C11        -0.3831   -2.8417   -3.7121 C.ar      1 <0>        -0.1395
     16 C12        -1.5659   -3.4231   -4.1504 C.ar      1 <0>         0.1864
     17 C13        -2.6147   -3.6126   -3.2599 C.ar      1 <0>        -0.1093
     18 C14        -2.4765   -3.2277   -1.9407 C.ar      1 <0>        -0.0688
     19 N3         -1.7006   -3.8165   -5.4857 N.am      1 <0>        -0.6801
     20 C15        -2.9012   -3.7390   -6.0932 C.2       1 <0>         0.5707
     21 O1         -3.8453   -3.2381   -5.5127 O.2       1 <0>        -0.4941
     22 C16        -3.0699   -4.2609   -7.4600 C.ar      1 <0>        -0.2257
     23 C17        -1.9875   -4.8426   -8.1281 C.ar      1 <0>        -0.0043
     24 C18        -2.1491   -5.3288   -9.4046 C.ar      1 <0>        -0.2525
     25 C19        -3.3869   -5.2443  -10.0355 C.ar      1 <0>         0.2075
     26 C20        -4.4667   -4.6690   -9.3825 C.ar      1 <0>        -0.2581
     27 C21        -4.3185   -4.1817   -8.0952 C.ar      1 <0>         0.2338
     28 O2         -5.3750   -3.6241   -7.4525 O.3       1 <0>        -0.2780
     29 C22        -6.6149   -3.5779   -8.1615 C.3       1 <0>         0.0167
     30 O3         -3.5376   -5.7265  -11.2951 O.3       1 <0>        -0.3072
     31 C23        -2.3852   -6.3059  -11.9102 C.3       1 <0>         0.0223
     32 C24        -2.6911   -0.2259    0.1846 C.2       1 <0>         0.5675
     33 O4         -2.8708    0.9759    0.2769 O.2       1 <0>        -0.5189
     34 N4         -3.7421   -1.0690    0.2171 N.am      1 <0>        -0.7250
     35 C25        -5.1007   -0.5406    0.3633 C.3       1 <0>         0.0832
     36 H2          0.4083    2.1179    0.0119 H         1 <0>         0.0757
     37 H3         -1.1593    1.8974   -0.8018 H         1 <0>         0.1159
     38 H4         -1.0664    1.8626    0.9754 H         1 <0>         0.1200
     39 H5          0.4275   -3.5191    2.2216 H         1 <0>         0.1082
     40 H6         -0.4336   -4.4269    0.9685 H         1 <0>         0.1303
     41 H7          1.7406   -5.4334    1.3178 H         1 <0>         0.1327
     42 H8          1.7246   -4.6515   -0.2820 H         1 <0>         0.1037
     43 H9          2.7919   -3.3090    2.2482 H         1 <0>         0.1267
     44 H10         3.8202   -4.1700    1.0705 H         1 <0>         0.1557
     45 H11         0.6658   -2.0015   -2.0516 H         1 <0>         0.1037
     46 H12         0.4342   -2.6928   -4.4022 H         1 <0>         0.1346
     47 H13        -3.5357   -4.0644   -3.5976 H         1 <0>         0.1483
     48 H14        -3.2901   -3.3787   -1.2467 H         1 <0>         0.1293
     49 H15        -0.9300   -4.1452   -5.9746 H         1 <0>         0.4122
     50 H16        -1.0254   -4.9097   -7.6422 H         1 <0>         0.1340
     51 H17        -1.3123   -5.7774   -9.9194 H         1 <0>         0.1407
     52 H18        -5.4248   -4.6053   -9.8767 H         1 <0>         0.1484
     53 H19        -6.4892   -2.9982   -9.0759 H         1 <0>         0.0620
     54 H20        -6.9271   -4.5913   -8.4137 H         1 <0>         0.0621
     55 H21        -7.3741   -3.1090   -7.5355 H         1 <0>         0.1078
     56 H22        -1.5939   -5.5590  -11.9753 H         1 <0>         0.0622
     57 H23        -2.0401   -7.1498  -11.3129 H         1 <0>         0.0622
     58 H24        -2.6426   -6.6507  -12.9117 H         1 <0>         0.1082
     59 H25        -3.5991   -2.0255    0.1436 H         1 <0>         0.3950
     60 H26        -5.8128   -1.3658    0.3689 H         1 <0>         0.0825
     61 H27        -5.1770    0.0115    1.3000 H         1 <0>         0.0681
     62 H28        -5.3231    0.1256   -0.4703 H         1 <0>         0.0691
     63 H29         1.6442    0.2562   -0.2762 H         1 <0>         0.4532
@<TRIPOS>BOND
     1    1    2 1
     2    1   36 1
     3    1   37 1
     4    1   38 1
     5    2   12 1
     6    2    3 2
     7    3    4 1
     8    3   32 1
     9    4    5 1
    10    4    6 1
    11    4   13 1
    12    6   11 1
    13    6    7 1
    14    7    8 1
    15    7   39 1
    16    7   40 1
    17    8    9 1
    18    8   41 1
    19    8   42 1
    20    9   10 1
    21    9   43 1
    22    9   44 1
    23   10   11 1
    24   11   12 2
    25   12   63 1
    26   13   18 ar
    27   13   14 ar
    28   14   15 ar
    29   14   45 1
    30   15   16 ar
    31   15   46 1
    32   16   17 ar
    33   16   19 1
    34   17   18 ar
    35   17   47 1
    36   18   48 1
    37   19   20 am
    38   19   49 1
    39   20   21 2
    40   20   22 1
    41   22   27 ar
    42   22   23 ar
    43   23   24 ar
    44   23   50 1
    45   24   25 ar
    46   24   51 1
    47   25   26 ar
    48   25   30 1
    49   26   27 ar
    50   26   52 1
    51   27   28 1
    52   28   29 1
    53   29   53 1
    54   29   54 1
    55   29   55 1
    56   30   31 1
    57   31   56 1
    58   31   57 1
    59   31   58 1
    60   32   33 2
    61   32   34 am
    62   34   35 1
    63   34   59 1
    64   35   60 1
    65   35   61 1
    66   35   62 1
@<TRIPOS>MOLECULE
ZINC39608845
   70    74     0     0     0
SMALL
USER_CHARGES

@<TRIPOS>ATOM
      1 C1          5.0103   -7.6026    1.7013 C.ar      1 <0>        -0.1087
      2 C2          5.8574   -6.7647    1.0003 C.ar      1 <0>        -0.1220
      3 C3          6.7790   -5.9889    1.6784 C.ar      1 <0>        -0.0985
      4 C4          6.8532   -6.0506    3.0573 C.ar      1 <0>        -0.0995
      5 C5          6.0055   -6.8878    3.7583 C.ar      1 <0>        -0.0977
      6 C6          5.0848   -7.6647    3.0802 C.ar      1 <0>        -0.1215
      7 C7          7.8585   -5.2056    3.7964 C.3       1 <0>         0.1070
      8 O1          7.2720   -3.9442    4.1232 O.3       1 <0>        -0.3672
      9 C8          8.1467   -3.0621    4.8297 C.3       1 <0>         0.0811
     10 H1          9.1816   -3.2613    4.5517 H         1 <0>         0.0679
     11 C9          7.9638   -3.2429    6.3507 C.3       1 <0>        -0.1492
     12 C10         8.1080   -1.8111    6.9235 C.3       1 <0>        -0.1218
     13 C11         7.3987   -0.9425    5.8551 C.3       1 <0>        -0.1270
     14 C12         7.7882   -1.5995    4.5135 C.3       1 <0>         0.1385
     15 H2          6.9470   -1.5625    3.8213 H         1 <0>         0.1085
     16 N1          8.9457   -0.9129    3.9349 N.am      1 <0>        -0.7239
     17 C13         8.7645    0.1589    3.1380 C.2       1 <0>         0.5141
     18 O2          7.6431    0.5549    2.9001 O.2       1 <0>        -0.5035
     19 C14         9.9552    0.8652    2.5428 C.3       1 <0>        -0.1144
     20 H3         10.7481    0.1506    2.3220 H         1 <0>         0.1189
     21 C15         9.5446    1.6258    1.2620 C.3       1 <0>         0.1205
     22 N2          9.2680    3.0078    1.7198 N.am      1 <0>        -0.6139
     23 C16        10.3196    3.2793    2.7290 C.3       1 <0>         0.0896
     24 C17        10.4668    1.9534    3.5016 C.3       1 <0>        -0.0733
     25 C18        11.9311    1.7048    3.8502 C.3       1 <0>        -0.1349
     26 C19        12.4004    2.7655    4.8499 C.3       1 <0>        -0.0104
     27 N3         11.5710    2.7017    6.0593 N.4       1 <0>        -0.5050
     28 C20        10.1795    3.0336    5.7303 C.3       1 <0>        -0.0097
     29 C21         9.6163    1.9842    4.7678 C.3       1 <0>        -0.1515
     30 C22         8.2832    3.8319    1.3108 C.2       1 <0>         0.5852
     31 O3          7.4176    3.4204    0.5630 O.2       1 <0>        -0.4976
     32 C23         8.2556    5.2360    1.7713 C.ar      1 <0>        -0.1159
     33 C24         9.4206    5.8401    2.2483 C.ar      1 <0>        -0.0954
     34 C25         9.3893    7.1502    2.6769 C.ar      1 <0>        -0.1069
     35 C26         8.2052    7.8676    2.6355 C.ar      1 <0>        -0.0093
     36 C27         7.0453    7.2740    2.1632 C.ar      1 <0>        -0.0357
     37 C28         7.0661    5.9649    1.7258 C.ar      1 <0>        -0.0377
     38 Cl1         5.5656    8.1805    2.1149 Cl        1 <0>        -0.0237
     39 Cl2         8.1737    9.5164    3.1779 Cl        1 <0>        -0.0275
     40 H4          4.2872   -8.2053    1.1719 H         1 <0>         0.1258
     41 H5          5.7994   -6.7164   -0.0770 H         1 <0>         0.1255
     42 H6          7.4413   -5.3348    1.1307 H         1 <0>         0.1203
     43 H7          6.0637   -6.9363    4.8357 H         1 <0>         0.1224
     44 H8          4.4228   -8.3190    3.6279 H         1 <0>         0.1262
     45 H9          8.1582   -5.7152    4.7122 H         1 <0>         0.0601
     46 H10         8.7334   -5.0471    3.1659 H         1 <0>         0.0572
     47 H11         6.9745   -3.6441    6.5710 H         1 <0>         0.0861
     48 H12         8.7391   -3.8948    6.7534 H         1 <0>         0.0737
     49 H13         7.6037   -1.7276    7.8862 H         1 <0>         0.0753
     50 H14         9.1586   -1.5341    7.0112 H         1 <0>         0.0623
     51 H15         6.3181   -0.9722    5.9953 H         1 <0>         0.0835
     52 H16         7.7616    0.0845    5.8960 H         1 <0>         0.0659
     53 H17         9.8426   -1.2296    4.1252 H         1 <0>         0.3957
     54 H18        10.3605    1.6210    0.5392 H         1 <0>         0.0905
     55 H19         8.6484    1.1828    0.8277 H         1 <0>         0.1055
     56 H20        11.2583    3.5396    2.2398 H         1 <0>         0.0921
     57 H21        10.0053    4.0783    3.4005 H         1 <0>         0.0930
     58 H22        12.0365    0.7147    4.2938 H         1 <0>         0.0987
     59 H23        12.5358    1.7649    2.9453 H         1 <0>         0.1236
     60 H24        13.4417    2.5804    5.1136 H         1 <0>         0.1414
     61 H25        12.3103    3.7540    4.3996 H         1 <0>         0.1324
     62 H26        11.6111    1.7699    6.4443 H         1 <0>         0.4286
     63 H27         9.5837    3.0462    6.6429 H         1 <0>         0.1399
     64 H28        10.1422    4.0157    5.2589 H         1 <0>         0.1323
     65 H29         8.5889    2.2412    4.5099 H         1 <0>         0.1230
     66 H30         9.6380    1.0043    5.2447 H         1 <0>         0.1007
     67 H31        10.3445    5.2819    2.2819 H         1 <0>         0.1466
     68 H32        10.2901    7.6180    3.0459 H         1 <0>         0.1507
     69 H33         6.1629    5.5043    1.3536 H         1 <0>         0.1581
     70 H34        11.9203    3.3593    6.7402 H         1 <0>         0.4348
@<TRIPOS>BOND
     1    1    6 ar
     2    1    2 ar
     3    1   40 1
     4    2    3 ar
     5    2   41 1
     6    3    4 ar
     7    3   42 1
     8    4    5 ar
     9    4    7 1
    10    5    6 ar
    11    5   43 1
    12    6   44 1
    13    7    8 1
    14    7   45 1
    15    7   46 1
    16    8    9 1
    17    9   10 1
    18    9   14 1
    19    9   11 1
    20   11   12 1
    21   11   47 1
    22   11   48 1
    23   12   13 1
    24   12   49 1
    25   12   50 1
    26   13   14 1
    27   13   51 1
    28   13   52 1
    29   14   15 1
    30   14   16 1
    31   16   17 am
    32   16   53 1
    33   17   18 2
    34   17   19 1
    35   19   20 1
    36   19   24 1
    37   19   21 1
    38   21   22 1
    39   21   54 1
    40   21   55 1
    41   22   23 1
    42   22   30 am
    43   23   24 1
    44   23   56 1
    45   23   57 1
    46   24   29 1
    47   24   25 1
    48   25   26 1
    49   25   58 1
    50   25   59 1
    51   26   27 1
    52   26   60 1
    53   26   61 1
    54   27   28 1
    55   27   62 1
    56   27   70 1
    57   28   29 1
    58   28   63 1
    59   28   64 1
    60   29   65 1
    61   29   66 1
    62   30   31 2
    63   30   32 1
    64   32   37 ar
    65   32   33 ar
    66   33   34 ar
    67   33   67 1
    68   34   35 ar
    69   34   68 1
    70   35   36 ar
    71   35   39 1
    72   36   37 ar
    73   36   38 1
    74   37   69 1
@<TRIPOS>MOLECULE
ZINC43741659
   76    80     0     0     0
SMALL
USER_CHARGES

@<TRIPOS>ATOM
      1 C1          0.2949    0.9364   -0.6113 C.3       1 <0>        -0.2081
      2 C2         -0.0919   -0.1216    0.3898 C.2       1 <0>         0.3642
      3 O1          0.6179   -0.3403    1.3419 O.2       1 <0>        -0.4532
      4 C3         -1.3646   -0.9066    0.2026 C.3       1 <0>        -0.1325
      5 H1         -2.1373   -0.2738   -0.2338 H         1 <0>         0.0969
      6 C4         -1.8445   -1.4821    1.5583 C.3       1 <0>        -0.1189
      7 C5         -1.9350   -3.0215    1.3734 C.3       1 <0>        -0.1151
      8 C6         -2.1129   -3.1754   -0.1413 C.3       1 <0>        -0.0794
      9 H2         -3.1313   -2.9177   -0.4319 H         1 <0>         0.0764
     10 C7         -1.1111   -2.1201   -0.6859 C.3       1 <0>        -0.0484
     11 C8         -1.4004   -1.9480   -2.1647 C.3       1 <0>        -0.1048
     12 C9         -1.0769   -3.2859   -2.8483 C.3       1 <0>        -0.1224
     13 C10        -1.8804   -4.4359   -2.2481 C.3       1 <0>        -0.0662
     14 H3         -2.9369   -4.2838   -2.4691 H         1 <0>         0.0681
     15 C11        -1.7256   -4.5255   -0.7169 C.3       1 <0>        -0.0770
     16 H4         -0.6893   -4.7535   -0.4675 H         1 <0>         0.0863
     17 C12        -2.6599   -5.6083   -0.1688 C.3       1 <0>        -0.1103
     18 C13        -2.2132   -6.9718   -0.7002 C.3       1 <0>        -0.0935
     19 C14        -2.1652   -6.9148   -2.2162 C.2       1 <0>        -0.0386
     20 C15        -2.7535   -7.8979   -2.8886 C.2       1 <0>        -0.1856
     21 C16        -2.7254   -7.9036   -4.3616 C.2       1 <0>         0.1862
     22 N1         -3.5885   -8.5731   -5.0580 N.2       1 <0>        -0.3474
     23 O2         -4.5941   -9.3261   -4.4047 O.3       1 <0>        -0.2207
     24 C17        -5.4760  -10.0134   -5.2946 C.3       1 <0>         0.0591
     25 C18        -6.5001  -10.7778   -4.4960 C.2       1 <0>         0.5220
     26 O3         -6.4771  -10.7379   -3.2840 O.2       1 <0>        -0.5112
     27 N2         -7.4417  -11.5057   -5.1285 N.am      1 <0>        -0.7347
     28 C19        -8.4373  -12.2488   -4.3521 C.3       1 <0>         0.1233
     29 C20        -9.3815  -12.9847   -5.3050 C.3       1 <0>        -0.0756
     30 C21       -10.4056  -13.7491   -4.5063 C.2       1 <0>         0.0325
     31 C22       -10.2448  -14.9806   -3.9855 C.2       1 <0>         0.0422
     32 N3        -11.4114  -15.2937   -3.3415 N.pl3     1 <0>        -0.5089
     33 H5        -11.6034  -16.1172   -2.8662 H         1 <0>         0.4692
     34 C23       -12.2450  -14.2419   -3.4912 C.cat     1 <0>         0.3107
     35 N4        -11.6350  -13.3199   -4.1847 N.pl3     1 <0>        -0.4740
     36 C24        -1.6317   -7.0843   -5.0189 C.3       1 <0>        -0.0624
     37 C25        -1.6513   -5.6984   -4.3757 C.3       1 <0>        -0.1088
     38 C26        -1.4224   -5.7542   -2.8843 C.3       1 <0>        -0.0192
     39 C27         0.0796   -5.9014   -2.6327 C.3       1 <0>        -0.1502
     40 C28         0.3226   -2.6167   -0.4888 C.3       1 <0>        -0.1574
     41 H6          1.2380    1.3932   -0.3111 H         1 <0>         0.0816
     42 H7          0.4085    0.4814   -1.5952 H         1 <0>         0.0917
     43 H8         -0.4820    1.6999   -0.6515 H         1 <0>         0.0918
     44 H9         -1.1266   -1.2411    2.3423 H         1 <0>         0.0795
     45 H10        -2.8246   -1.0774    1.8106 H         1 <0>         0.0671
     46 H11        -1.0157   -3.5044    1.7047 H         1 <0>         0.0700
     47 H12        -2.7968   -3.4239    1.9057 H         1 <0>         0.0666
     48 H13        -2.4519   -1.7009   -2.3111 H         1 <0>         0.0673
     49 H14        -0.7716   -1.1588   -2.5768 H         1 <0>         0.0665
     50 H15        -1.3081   -3.2072   -3.9106 H         1 <0>         0.0662
     51 H16        -0.0138   -3.4964   -2.7320 H         1 <0>         0.0752
     52 H17        -2.6168   -5.6097    0.9203 H         1 <0>         0.0707
     53 H18        -3.6808   -5.4073   -0.4938 H         1 <0>         0.0634
     54 H19        -1.2225   -7.2084   -0.3120 H         1 <0>         0.0810
     55 H20        -2.9231   -7.7369   -0.3857 H         1 <0>         0.0726
     56 H21        -3.2530   -8.6931   -2.3552 H         1 <0>         0.1279
     57 H22        -5.9807   -9.2908   -5.9359 H         1 <0>         0.0890
     58 H23        -4.9031  -10.7073   -5.9098 H         1 <0>         0.0898
     59 H24        -7.4601  -11.5376   -6.0978 H         1 <0>         0.4076
     60 H25        -7.9325  -12.9714   -3.7109 H         1 <0>         0.0799
     61 H26        -9.0101  -11.5549   -3.7370 H         1 <0>         0.0726
     62 H27        -9.8862  -12.2622   -5.9462 H         1 <0>         0.1053
     63 H28        -8.8086  -13.6786   -5.9201 H         1 <0>         0.1215
     64 H29        -9.3647  -15.6019   -4.0617 H         1 <0>         0.2284
     65 H30       -13.2488  -14.1734   -3.0986 H         1 <0>         0.2680
     66 H31        -0.6636   -7.5567   -4.8521 H         1 <0>         0.0974
     67 H32        -1.8242   -6.9994   -6.0884 H         1 <0>         0.0907
     68 H33        -0.8548   -5.0939   -4.8099 H         1 <0>         0.0842
     69 H34        -2.6099   -5.2234   -4.5844 H         1 <0>         0.0700
     70 H35         0.2685   -5.9151   -1.5593 H         1 <0>         0.0631
     71 H36         0.4326   -6.8327   -3.0756 H         1 <0>         0.0580
     72 H37         0.6076   -5.0614   -3.0840 H         1 <0>         0.0697
     73 H38         0.5037   -2.7923    0.5715 H         1 <0>         0.0645
     74 H39         0.4642   -3.5461   -1.0405 H         1 <0>         0.0713
     75 H40         1.0212   -1.8655   -0.8572 H         1 <0>         0.0516
     76 H41       -12.0118  -12.4605   -4.4304 H         1 <0>         0.4657
@<TRIPOS>BOND
     1    1    2 1
     2    1   41 1
     3    1   42 1
     4    1   43 1
     5    2    3 2
     6    2    4 1
     7    4    5 1
     8    4   10 1
     9    4    6 1
    10    6    7 1
    11    6   44 1
    12    6   45 1
    13    7    8 1
    14    7   46 1
    15    7   47 1
    16    8    9 1
    17    8   15 1
    18    8   10 1
    19   10   11 1
    20   10   40 1
    21   11   12 1
    22   11   48 1
    23   11   49 1
    24   12   13 1
    25   12   50 1
    26   12   51 1
    27   13   14 1
    28   13   38 1
    29   13   15 1
    30   15   16 1
    31   15   17 1
    32   17   18 1
    33   17   52 1
    34   17   53 1
    35   18   19 1
    36   18   54 1
    37   18   55 1
    38   19   38 1
    39   19   20 2
    40   20   21 1
    41   20   56 1
    42   21   22 2
    43   21   36 1
    44   22   23 1
    45   23   24 1
    46   24   25 1
    47   24   57 1
    48   24   58 1
    49   25   26 2
    50   25   27 am
    51   27   28 1
    52   27   59 1
    53   28   29 1
    54   28   60 1
    55   28   61 1
    56   29   30 1
    57   29   62 1
    58   29   63 1
    59   30   35 1
    60   30   31 2
    61   31   32 1
    62   31   64 1
    63   32   33 1
    64   32   34 1
    65   34   35 2
    66   34   65 1
    67   35   76 1
    68   36   37 1
    69   36   66 1
    70   36   67 1
    71   37   38 1
    72   37   68 1
    73   37   69 1
    74   38   39 1
    75   39   70 1
    76   39   71 1
    77   39   72 1
    78   40   73 1
    79   40   74 1
    80   40   75 1
@<TRIPOS>MOLECULE
ZINC63479832
   61    67     0     0     0
SMALL
USER_CHARGES

@<TRIPOS>ATOM
      1 C1         -0.0159    1.5028    0.0085 C.3       1 <0>        -0.1222
      2 C2          0.0039   -0.0040    0.0007 C.ar      1 <0>        -0.0640
      3 C3          1.1560   -0.6808    0.3564 C.ar      1 <0>        -0.1063
      4 C4          1.1772   -2.0619    0.3502 C.ar      1 <0>        -0.0917
      5 C5          0.0401   -2.7705   -0.0132 C.ar      1 <0>         0.0938
      6 C6         -1.1153   -2.0882   -0.3694 C.ar      1 <0>        -0.0919
      7 C7         -1.1319   -0.7072   -0.3567 C.ar      1 <0>        -0.1095
      8 N1          0.0586   -4.1723   -0.0209 N.am      1 <0>        -0.5186
      9 C8         -0.0302   -4.8909   -1.1461 C.2       1 <0>         0.5252
     10 O1         -0.1388   -4.4326   -2.2631 O.2       1 <0>        -0.4577
     11 C9          0.0261   -6.3631   -0.8077 C.3       1 <0>        -0.1503
     12 H1          0.8528   -6.8754   -1.2998 H         1 <0>         0.1600
     13 C10        -1.3404   -7.0107   -1.1155 C.3       1 <0>         0.0887
     14 H2         -1.2187   -8.0748   -1.3179 H         1 <0>         0.1313
     15 N2         -2.1460   -6.8075    0.1178 N.3       1 <0>        -0.6242
     16 C11        -1.1819   -7.0058    1.2159 C.3       1 <0>         0.1290
     17 C12         0.1493   -6.3708    0.7416 C.3       1 <0>        -0.1306
     18 H3          1.0302   -6.9076    1.0936 H         1 <0>         0.1576
     19 C13         0.1722   -4.9005    1.0956 C.2       1 <0>         0.5207
     20 O2          0.2745   -4.4516    2.2171 O.2       1 <0>        -0.4210
     21 C14        -1.0068   -8.4621    1.5401 C.ar      1 <0>        -0.1301
     22 C15        -0.5953   -9.5536    0.8084 C.ar      1 <0>        -0.0550
     23 C16        -0.5359  -10.8022    1.4012 C.ar      1 <0>        -0.1379
     24 C17        -0.8906  -10.9509    2.7296 C.ar      1 <0>        -0.0693
     25 C18        -1.3038   -9.8606    3.4665 C.ar      1 <0>        -0.1330
     26 C19        -1.3665   -8.5999    2.8775 C.ar      1 <0>         0.1571
     27 N3         -1.7465   -7.3640    3.4051 N.am      1 <0>        -0.6538
     28 C20        -1.6670   -6.3758    2.4931 C.2       1 <0>         0.5354
     29 O3         -1.9339   -5.2057    2.6678 O.2       1 <0>        -0.4613
     30 C21        -2.0025   -6.3157   -2.3070 C.3       1 <0>        -0.0982
     31 C22        -3.2743   -7.0393   -2.6674 C.2       1 <0>         0.0765
     32 C23        -4.5274   -6.7328   -2.2610 C.ar      1 <0>        -0.1616
     33 C24        -5.0609   -5.6753   -1.3941 C.ar      1 <0>        -0.0055
     34 C25        -6.3929   -5.6237   -1.1662 C.ar      1 <0>        -0.1524
     35 C26        -7.2747   -6.5527   -1.7354 C.ar      1 <0>         0.0559
     36 C27        -6.8598   -7.5523   -2.5421 C.ar      1 <0>        -0.2106
     37 C28        -5.4794   -7.7013   -2.8503 C.ar      1 <0>         0.3304
     38 N4         -4.8398   -8.5726   -3.5921 N.pl3     1 <0>        -0.5871
     39 C29        -3.4085   -8.2513   -3.5621 C.3       1 <0>         0.0632
     40 H4         -0.3240    1.8570    0.9922 H         1 <0>         0.0783
     41 H5          0.9812    1.8804   -0.2178 H         1 <0>         0.0728
     42 H6         -0.7193    1.8608   -0.7433 H         1 <0>         0.0718
     43 H7          2.0404   -0.1290    0.6390 H         1 <0>         0.1354
     44 H8          2.0776   -2.5899    0.6274 H         1 <0>         0.1264
     45 H9         -2.0014   -2.6369   -0.6529 H         1 <0>         0.1196
     46 H10        -2.0316   -0.1759   -0.6300 H         1 <0>         0.1335
     47 H11        -2.5383   -5.8783    0.1444 H         1 <0>         0.3487
     48 H12        -0.3192   -9.4350   -0.2290 H         1 <0>         0.1256
     49 H13        -0.2135  -11.6588    0.8279 H         1 <0>         0.1348
     50 H14        -0.8443  -11.9257    3.1922 H         1 <0>         0.1375
     51 H15        -1.5791   -9.9847    4.5034 H         1 <0>         0.1332
     52 H16        -2.0345   -7.2324    4.3220 H         1 <0>         0.4230
     53 H17        -2.2339   -5.2838   -2.0430 H         1 <0>         0.1099
     54 H18        -1.3229   -6.3291   -3.1590 H         1 <0>         0.1387
     55 H19        -4.3994   -4.9495   -0.9446 H         1 <0>         0.1514
     56 H20        -6.7876   -4.8464   -0.5286 H         1 <0>         0.1561
     57 H21        -8.3293   -6.4655   -1.5194 H         1 <0>         0.1599
     58 H22        -7.5800   -8.2429   -2.9555 H         1 <0>         0.1598
     59 H23        -3.0524   -8.0187   -4.5657 H         1 <0>         0.1741
     60 H24        -2.8464   -9.0882   -3.1478 H         1 <0>         0.1732
     61 H25        -5.2454   -9.3049   -4.0822 H         1 <0>         0.4551
@<TRIPOS>BOND
     1    1    2 1
     2    1   40 1
     3    1   41 1
     4    1   42 1
     5    2    7 ar
     6    2    3 ar
     7    3    4 ar
     8    3   43 1
     9    4    5 ar
    10    4   44 1
    11    5    6 ar
    12    5    8 1
    13    6    7 ar
    14    6   45 1
    15    7   46 1
    16    8   19 am
    17    8    9 am
    18    9   10 2
    19    9   11 1
    20   11   12 1
    21   11   17 1
    22   11   13 1
    23   13   14 1
    24   13   15 1
    25   13   30 1
    26   15   16 1
    27   15   47 1
    28   16   28 1
    29   16   17 1
    30   16   21 1
    31   17   18 1
    32   17   19 1
    33   19   20 2
    34   21   26 ar
    35   21   22 ar
    36   22   23 ar
    37   22   48 1
    38   23   24 ar
    39   23   49 1
    40   24   25 ar
    41   24   50 1
    42   25   26 ar
    43   25   51 1
    44   26   27 1
    45   27   28 am
    46   27   52 1
    47   28   29 2
    48   30   31 1
    49   30   53 1
    50   30   54 1
    51   31   39 1
    52   31   32 2
    53   32   37 ar
    54   32   33 ar
    55   33   34 ar
    56   33   55 1
    57   34   35 ar
    58   34   56 1
    59   35   36 ar
    60   35   57 1
    61   36   37 ar
    62   36   58 1
    63   37   38 2
    64   38   39 1
    65   38   61 1
    66   39   59 1
    67   39   60 1
@<TRIPOS>MOLECULE
ZINC20687752
   63    66     0     0     0
SMALL
USER_CHARGES
(2S)-N-(1-adamantylcarbamoyl)-2-[[4-(difluoromethoxy)phenyl]methyl-methyl-amino]propanamide
@<TRIPOS>ATOM
      1 C1         -3.7541    5.0335    4.0188 C.3       1 <0>        -0.1838
      2 C2         -2.3187    5.5631    4.0079 C.3       1 <0>         0.0116
      3 H1         -1.7698    5.2313    4.9015 H         1 <0>         0.1671
      4 C3         -1.6133    5.0771    2.7681 C.2       1 <0>         0.5184
      5 O1         -1.1710    5.8754    1.9701 O.2       1 <0>        -0.4583
      6 N1         -1.4743    3.7550    2.5463 N.am      1 <0>        -0.6904
      7 C4         -0.8434    3.3203    1.4375 C.2       1 <0>         0.6957
      8 O2         -0.4000    4.1206    0.6375 O.2       1 <0>        -0.5177
      9 N2         -0.7044    1.9982    1.2158 N.am      1 <0>        -0.7332
     10 C5         -0.0187    1.5258    0.0104 C.3       1 <0>         0.2026
     11 C6          1.4167    2.0553   -0.0004 C.3       1 <0>        -0.1228
     12 C7          2.1328    1.5619   -1.2592 C.3       1 <0>        -0.0829
     13 C8          2.1536    0.0321   -1.2676 C.3       1 <0>        -0.1143
     14 C9          0.7182   -0.4975   -1.2568 C.3       1 <0>        -0.0812
     15 C10         0.0021   -0.0041    0.0020 C.3       1 <0>        -0.1137
     16 C11        -0.0218    0.0093   -2.4963 C.3       1 <0>        -0.1142
     17 C12        -0.0425    1.5392   -2.4879 C.3       1 <0>        -0.0829
     18 C13         1.3929    2.0688   -2.4988 C.3       1 <0>        -0.1120
     19 C14        -0.7587    2.0326   -1.2291 C.3       1 <0>        -0.1224
     20 N3         -2.3386    7.0319    4.0160 N.4       1 <0>        -0.3901
     21 C15        -3.1632    7.5533    2.9178 C.3       1 <0>        -0.0662
     22 C16        -2.8025    7.5450    5.3120 C.3       1 <0>         0.0507
     23 C17        -2.5792    9.0342    5.3717 C.ar      1 <0>        -0.1891
     24 C18        -1.3889    9.5343    5.8666 C.ar      1 <0>        -0.0504
     25 C19        -1.1796   10.8989    5.9172 C.ar      1 <0>        -0.1902
     26 C20        -2.1693   11.7679    5.4814 C.ar      1 <0>         0.1480
     27 C21        -3.3649   11.2637    4.9906 C.ar      1 <0>        -0.1327
     28 C22        -3.5672    9.8982    4.9369 C.ar      1 <0>        -0.0564
     29 O3         -1.9678   13.1108    5.5349 O.3       1 <0>        -0.3126
     30 C23        -0.7131   13.5584    6.0519 C.3       1 <0>         0.4085
     31 F1         -0.5608   13.1029    7.3658 F         1 <0>        -0.1939
     32 F2          0.3242   13.0539    5.2602 F         1 <0>        -0.1947
     33 H2         -4.2689    5.3883    4.9238 H         1 <0>         0.1000
     34 H3         -3.7392    3.9336    4.0128 H         1 <0>         0.1096
     35 H4         -4.2861    5.3979    3.1276 H         1 <0>         0.0930
     36 H5         -1.8758    3.0307    3.2703 H         1 <0>         0.4403
     37 H6         -1.1058    1.2738    1.9398 H         1 <0>         0.4190
     38 H7          1.4018    3.1552    0.0057 H         1 <0>         0.0836
     39 H8          1.9487    1.6909    0.8908 H         1 <0>         0.0599
     40 H9          3.1648    1.9426   -1.2670 H         1 <0>         0.0748
     41 H10         2.6685   -0.3226   -2.1726 H         1 <0>         0.0690
     42 H11         2.6856   -0.3323   -0.3764 H         1 <0>         0.0640
     43 H12         0.7331   -1.5974   -1.2629 H         1 <0>         0.0795
     44 H13         0.5342   -0.3684    0.8932 H         1 <0>         0.0709
     45 H14        -1.0299   -0.3849    0.0099 H         1 <0>         0.0708
     46 H15         0.4931   -0.3455   -3.4013 H         1 <0>         0.0690
     47 H16        -1.0538   -0.3714   -2.4885 H         1 <0>         0.0640
     48 H17        -0.5745    1.9036   -3.3791 H         1 <0>         0.0748
     49 H18         1.3780    3.1687   -2.4927 H         1 <0>         0.0645
     50 H19         1.9078    1.7141   -3.4038 H         1 <0>         0.0669
     51 H20        -1.7907    1.6518   -1.2213 H         1 <0>         0.0598
     52 H21        -0.7737    3.1325   -1.2230 H         1 <0>         0.0836
     53 H22        -3.1606    8.6529    2.9475 H         1 <0>         0.1282
     54 H23        -4.1943    7.1860    3.0272 H         1 <0>         0.1211
     55 H24        -2.7522    7.2114    1.9564 H         1 <0>         0.1376
     56 H25        -3.8749    7.3300    5.4288 H         1 <0>         0.1377
     57 H26        -2.2404    7.0572    6.1220 H         1 <0>         0.1392
     58 H27        -0.6205    8.8574    6.2098 H         1 <0>         0.1386
     59 H28        -0.2479   11.2889    6.2997 H         1 <0>         0.1461
     60 H29        -4.1371   11.9382    4.6511 H         1 <0>         0.1489
     61 H30        -4.4976    9.5052    4.5545 H         1 <0>         0.1424
     62 H31        -0.6623   14.6572    6.0478 H         1 <0>         0.1957
     63 H32        -1.3082    7.3847    3.8619 H         1 <0>         0.4512
@<TRIPOS>BOND
     1    1    2 1
     2    1   33 1
     3    1   34 1
     4    1   35 1
     5    2    3 1
     6    2    4 1
     7    2   20 1
     8    4    5 2
     9    4    6 am
    10    6    7 am
    11    6   36 1
    12    7    8 2
    13    7    9 am
    14    9   10 1
    15    9   37 1
    16   10   15 1
    17   10   19 1
    18   10   11 1
    19   11   12 1
    20   11   38 1
    21   11   39 1
    22   12   18 1
    23   12   13 1
    24   12   40 1
    25   13   14 1
    26   13   41 1
    27   13   42 1
    28   14   15 1
    29   14   16 1
    30   14   43 1
    31   15   44 1
    32   15   45 1
    33   16   17 1
    34   16   46 1
    35   16   47 1
    36   17   18 1
    37   17   19 1
    38   17   48 1
    39   18   49 1
    40   18   50 1
    41   19   51 1
    42   19   52 1
    43   20   21 1
    44   20   22 1
    45   20   63 1
    46   21   53 1
    47   21   54 1
    48   21   55 1
    49   22   23 1
    50   22   56 1
    51   22   57 1
    52   23   28 ar
    53   23   24 ar
    54   24   25 ar
    55   24   58 1
    56   25   26 ar
    57   25   59 1
    58   26   27 ar
    59   26   29 1
    60   27   28 ar
    61   27   60 1
    62   28   61 1
    63   29   30 1
    64   30   31 1
    65   30   32 1
    66   30   62 1
@<TRIPOS>MOLECULE
ZINC39662452
   66    69     0     0     0
SMALL
USER_CHARGES

@<TRIPOS>ATOM
      1 C1          0.2913    1.7495    0.3738 C.3       1 <0>        -0.1532
      2 C2          0.2522    0.2250    0.2501 C.3       1 <0>        -0.1155
      3 C3         -1.2022   -0.2429    0.1686 C.3       1 <0>        -0.0603
      4 H1         -1.7550    0.1378    1.0274 H         1 <0>         0.1095
      5 C4         -1.8265    0.2763   -1.1010 C.ar      1 <0>        -0.0728
      6 C5         -1.2969   -0.0794   -2.3273 C.ar      1 <0>        -0.0872
      7 C6         -1.8696    0.3968   -3.4919 C.ar      1 <0>        -0.1205
      8 C7         -2.9721    1.2283   -3.4301 C.ar      1 <0>        -0.1143
      9 C8         -3.5022    1.5833   -2.2038 C.ar      1 <0>        -0.1205
     10 C9         -2.9322    1.1037   -1.0394 C.ar      1 <0>        -0.1095
     11 C10        -1.2461   -1.7492    0.1705 C.2       1 <0>         0.5520
     12 O1         -1.7361   -2.3428   -0.7668 O.2       1 <0>        -0.5192
     13 N1         -0.7409   -2.4368    1.2137 N.am      1 <0>        -0.6190
     14 C11        -0.1134   -1.8935    2.4414 C.3       1 <0>         0.1135
     15 C12        -0.6260   -2.8056    3.5783 C.3       1 <0>        -0.1141
     16 H2          0.1603   -2.9729    4.3144 H         1 <0>         0.1224
     17 C13        -0.9993   -4.1260    2.8840 C.3       1 <0>        -0.0731
     18 C14        -0.6932   -3.9075    1.3953 C.3       1 <0>         0.1068
     19 C15        -2.4841   -4.4212    3.0732 C.3       1 <0>        -0.1478
     20 C16        -2.8191   -5.7666    2.4232 C.3       1 <0>        -0.0089
     21 N2         -2.0073   -6.8243    3.0372 N.4       1 <0>        -0.5048
     22 C17        -0.5843   -6.5818    2.7710 C.3       1 <0>        -0.0104
     23 C18        -0.1548   -5.2707    3.4355 C.3       1 <0>        -0.1339
     24 C19        -1.8370   -2.1949    4.2353 C.2       1 <0>         0.5200
     25 O2         -2.5887   -1.4950    3.5903 O.2       1 <0>        -0.5048
     26 N3         -2.0847   -2.4265    5.5398 N.am      1 <0>        -0.7194
     27 C20        -3.2619   -1.8328    6.1784 C.3       1 <0>         0.2936
     28 H3         -3.4479   -0.8468    5.7526 H         1 <0>         0.1419
     29 C21        -4.4324   -2.6953    5.9483 C.1       1 <0>         0.1906
     30 N4         -5.3356   -3.3609    5.7707 N.1       1 <0>        -0.3997
     31 C22        -3.0176   -1.7023    7.6598 C.ar      1 <0>        -0.1132
     32 C23        -2.3606   -2.7084    8.3432 C.ar      1 <0>        -0.1074
     33 C24        -2.1365   -2.5888    9.7020 C.ar      1 <0>        -0.1139
     34 C25        -2.5689   -1.4628   10.3773 C.ar      1 <0>        -0.0997
     35 C26        -3.2251   -0.4562    9.6937 C.ar      1 <0>        -0.1094
     36 C27        -3.4454   -0.5740    8.3341 C.ar      1 <0>        -0.0916
     37 H4          1.3275    2.0829    0.4319 H         1 <0>         0.0615
     38 H5         -0.1860    2.1972   -0.4979 H         1 <0>         0.0624
     39 H6         -0.2396    2.0546    1.2756 H         1 <0>         0.0572
     40 H7          0.7831   -0.0801   -0.6516 H         1 <0>         0.0709
     41 H8          0.7296   -0.2226    1.1218 H         1 <0>         0.0696
     42 H9         -0.4355   -0.7291   -2.3756 H         1 <0>         0.1151
     43 H10        -1.4554    0.1194   -4.4499 H         1 <0>         0.1223
     44 H11        -3.4191    1.6010   -4.3399 H         1 <0>         0.1231
     45 H12        -4.3634    2.2333   -2.1555 H         1 <0>         0.1235
     46 H13        -3.3486    1.3780   -0.0814 H         1 <0>         0.1197
     47 H14         0.9728   -1.9495    2.3697 H         1 <0>         0.0940
     48 H15        -0.4316   -0.8642    2.6072 H         1 <0>         0.1015
     49 H16        -1.4491   -4.3918    0.7772 H         1 <0>         0.0878
     50 H17         0.2989   -4.2887    1.1532 H         1 <0>         0.0853
     51 H18        -2.7139   -4.4642    4.1378 H         1 <0>         0.0903
     52 H19        -3.0743   -3.6337    2.6045 H         1 <0>         0.1238
     53 H20        -3.8761   -5.9882    2.5710 H         1 <0>         0.1379
     54 H21        -2.6044   -5.7176    1.3556 H         1 <0>         0.1363
     55 H22        -2.1651   -6.8318    4.0338 H         1 <0>         0.4271
     56 H23         0.0060   -7.4041    3.1753 H         1 <0>         0.1410
     57 H24        -0.4226   -6.5136    1.6953 H         1 <0>         0.1337
     58 H25         0.8974   -5.0822    3.2221 H         1 <0>         0.1242
     59 H26        -0.3007   -5.3440    4.5132 H         1 <0>         0.0974
     60 H27        -1.4835   -2.9862    6.0557 H         1 <0>         0.4086
     61 H28        -2.0228   -3.5881    7.8156 H         1 <0>         0.1178
     62 H29        -1.6238   -3.3751   10.2360 H         1 <0>         0.1297
     63 H30        -2.3944   -1.3696   11.4390 H         1 <0>         0.1311
     64 H31        -3.5632    0.4233   10.2214 H         1 <0>         0.1336
     65 H32        -3.9548    0.2140    7.7993 H         1 <0>         0.1325
     66 H33        -2.2729   -7.7176    2.6506 H         1 <0>         0.4349
@<TRIPOS>BOND
     1    1    2 1
     2    1   37 1
     3    1   38 1
     4    1   39 1
     5    2    3 1
     6    2   40 1
     7    2   41 1
     8    3    4 1
     9    3    5 1
    10    3   11 1
    11    5   10 ar
    12    5    6 ar
    13    6    7 ar
    14    6   42 1
    15    7    8 ar
    16    7   43 1
    17    8    9 ar
    18    8   44 1
    19    9   10 ar
    20    9   45 1
    21   10   46 1
    22   11   12 2
    23   11   13 am
    24   13   18 1
    25   13   14 1
    26   14   15 1
    27   14   47 1
    28   14   48 1
    29   15   16 1
    30   15   17 1
    31   15   24 1
    32   17   23 1
    33   17   18 1
    34   17   19 1
    35   18   49 1
    36   18   50 1
    37   19   20 1
    38   19   51 1
    39   19   52 1
    40   20   21 1
    41   20   53 1
    42   20   54 1
    43   21   22 1
    44   21   55 1
    45   21   66 1
    46   22   23 1
    47   22   56 1
    48   22   57 1
    49   23   58 1
    50   23   59 1
    51   24   25 2
    52   24   26 am
    53   26   27 1
    54   26   60 1
    55   27   28 1
    56   27   29 1
    57   27   31 1
    58   29   30 3
    59   31   36 ar
    60   31   32 ar
    61   32   33 ar
    62   32   61 1
    63   33   34 ar
    64   33   62 1
    65   34   35 ar
    66   34   63 1
    67   35   36 ar
    68   35   64 1
    69   36   65 1
@<TRIPOS>MOLECULE
ZINC39673844
   65    68     0     0     0
SMALL
USER_CHARGES

@<TRIPOS>ATOM
      1 C1          3.6994   -2.2672   -4.3102 C.3       1 <0>        -0.1563
      2 C2          2.8261   -2.3716   -3.0583 C.3       1 <0>        -0.1234
      3 C3          1.7526   -3.4404   -3.2730 C.3       1 <0>        -0.1290
      4 C4          0.8793   -3.5448   -2.0210 C.3       1 <0>         0.1389
      5 H1          0.4727   -2.5629   -1.7787 H         1 <0>         0.0922
      6 C5         -0.2688   -4.5224   -2.2801 C.3       1 <0>        -0.1634
      7 N1          1.6888   -4.0284   -0.8999 N.am      1 <0>        -0.7231
      8 C6          1.3281   -3.7388    0.3660 C.2       1 <0>         0.5147
      9 O1          0.3333   -3.0779    0.5770 O.2       1 <0>        -0.5126
     10 C7          2.1609   -4.2362    1.5193 C.3       1 <0>        -0.1159
     11 H2          3.2039   -4.3349    1.2186 H         1 <0>         0.1174
     12 C8          2.0370   -3.2779    2.7251 C.3       1 <0>         0.1112
     13 N2          0.9693   -3.8696    3.5653 N.am      1 <0>        -0.6126
     14 C9          1.2099   -5.3307    3.4925 C.3       1 <0>         0.1096
     15 C10         1.6206   -5.5832    2.0282 C.3       1 <0>        -0.0728
     16 C11         2.7102   -6.6489    1.9614 C.3       1 <0>        -0.1337
     17 C12         2.1330   -7.9921    2.4170 C.3       1 <0>        -0.0101
     18 N3          1.0059   -8.3611    1.5520 N.4       1 <0>        -0.5044
     19 C13        -0.0760   -7.3792    1.6932 C.3       1 <0>        -0.0093
     20 C14         0.4078   -6.0102    1.2070 C.3       1 <0>        -0.1476
     21 C15        -0.0011   -3.2249    4.2430 C.2       1 <0>         0.6392
     22 O2         -0.8115   -3.8575    4.8947 O.2       1 <0>        -0.5142
     23 C16        -0.0805   -1.7631    4.1954 C.2       1 <0>        -0.0840
     24 C17        -1.0134   -0.9820    4.8420 C.2       1 <0>        -0.0990
     25 C18        -0.7187    0.3470    4.5218 C.2       1 <0>        -0.2003
     26 C19         0.3718    0.3297    3.7000 C.2       1 <0>         0.0738
     27 O3          0.7511   -0.9458    3.5149 O.3       1 <0>        -0.1528
     28 C20         1.0287    1.5164    3.1163 C.ar      1 <0>        -0.0434
     29 C21         0.5423    2.7954    3.3960 C.ar      1 <0>        -0.0587
     30 C22         1.1599    3.8999    2.8486 C.ar      1 <0>        -0.1478
     31 C23         2.2615    3.7427    2.0220 C.ar      1 <0>         0.1175
     32 C24         2.7483    2.4757    1.7406 C.ar      1 <0>        -0.1520
     33 C25         2.1423    1.3643    2.2870 C.ar      1 <0>        -0.0664
     34 F1          2.8628    4.8284    1.4883 F         1 <0>        -0.1307
     35 H3          4.1767   -3.2283   -4.5014 H         1 <0>         0.0538
     36 H4          3.0795   -1.9931   -5.1638 H         1 <0>         0.0571
     37 H5          4.4642   -1.5057   -4.1572 H         1 <0>         0.0575
     38 H6          3.4461   -2.6456   -2.2046 H         1 <0>         0.0590
     39 H7          2.3488   -1.4105   -2.8670 H         1 <0>         0.0639
     40 H8          1.1326   -3.1663   -4.1266 H         1 <0>         0.0829
     41 H9          2.2299   -4.4015   -3.4642 H         1 <0>         0.0677
     42 H10         0.1378   -5.5043   -2.5224 H         1 <0>         0.0539
     43 H11        -0.8909   -4.5968   -1.3882 H         1 <0>         0.0581
     44 H12        -0.8711   -4.1626   -3.1143 H         1 <0>         0.0718
     45 H13         2.4845   -4.5569   -1.0686 H         1 <0>         0.3976
     46 H14         2.9763   -3.2378    3.2767 H         1 <0>         0.0906
     47 H15         1.7489   -2.2814    2.3904 H         1 <0>         0.1087
     48 H16         2.0162   -5.6175    4.1676 H         1 <0>         0.0882
     49 H17         0.2987   -5.8787    3.7322 H         1 <0>         0.0907
     50 H18         3.0710   -6.7367    0.9366 H         1 <0>         0.0979
     51 H19         3.5355   -6.3670    2.6153 H         1 <0>         0.1224
     52 H20         2.9050   -8.7590    2.3545 H         1 <0>         0.1405
     53 H21         1.7876   -7.9081    3.4474 H         1 <0>         0.1333
     54 H22         1.3143   -8.3841    0.5915 H         1 <0>         0.4274
     55 H23        -0.9325   -7.6944    1.0972 H         1 <0>         0.1385
     56 H24        -0.3689   -7.3098    2.7408 H         1 <0>         0.1347
     57 H25        -0.3903   -5.2779    1.3289 H         1 <0>         0.1233
     58 H26         0.6853   -6.0749    0.1549 H         1 <0>         0.0971
     59 H27        -1.8174   -1.3292    5.4740 H         1 <0>         0.1659
     60 H28        -1.2530    1.2222    4.8606 H         1 <0>         0.1637
     61 H29        -0.3162    2.9190    4.0395 H         1 <0>         0.1432
     62 H30         0.7844    4.8894    3.0638 H         1 <0>         0.1477
     63 H31         3.6066    2.3590    1.0954 H         1 <0>         0.1430
     64 H32         2.5253    0.3779    2.0710 H         1 <0>         0.1348
     65 H33         0.6664   -9.2740    1.8154 H         1 <0>         0.4344
@<TRIPOS>BOND
     1    1    2 1
     2    1   35 1
     3    1   36 1
     4    1   37 1
     5    2    3 1
     6    2   38 1
     7    2   39 1
     8    3    4 1
     9    3   40 1
    10    3   41 1
    11    4    5 1
    12    4    6 1
    13    4    7 1
    14    6   42 1
    15    6   43 1
    16    6   44 1
    17    7    8 am
    18    7   45 1
    19    8    9 2
    20    8   10 1
    21   10   11 1
    22   10   15 1
    23   10   12 1
    24   12   13 1
    25   12   46 1
    26   12   47 1
    27   13   14 1
    28   13   21 am
    29   14   15 1
    30   14   48 1
    31   14   49 1
    32   15   20 1
    33   15   16 1
    34   16   17 1
    35   16   50 1
    36   16   51 1
    37   17   18 1
    38   17   52 1
    39   17   53 1
    40   18   19 1
    41   18   54 1
    42   18   65 1
    43   19   20 1
    44   19   55 1
    45   19   56 1
    46   20   57 1
    47   20   58 1
    48   21   22 2
    49   21   23 1
    50   23   27 1
    51   23   24 2
    52   24   25 1
    53   24   59 1
    54   25   26 2
    55   25   60 1
    56   26   27 1
    57   26   28 1
    58   28   33 ar
    59   28   29 ar
    60   29   30 ar
    61   29   61 1
    62   30   31 ar
    63   30   62 1
    64   31   32 ar
    65   31   34 1
    66   32   33 ar
    67   32   63 1
    68   33   64 1
@<TRIPOS>MOLECULE
ZINC39688450
   66    69     0     0     0
SMALL
USER_CHARGES

@<TRIPOS>ATOM
      1 C1         -2.2340    1.2860    1.2323 C.3       1 <0>        -0.1637
      2 C2         -0.7418    1.1654    0.9165 C.3       1 <0>         0.1436
      3 H1         -0.5998    0.4623    0.0958 H         1 <0>         0.0962
      4 C3         -0.1932    2.5360    0.5147 C.3       1 <0>        -0.0871
      5 C4          1.2447    2.3954    0.0859 C.ar      1 <0>        -0.1005
      6 C5          2.2583    2.5141    1.0184 C.ar      1 <0>        -0.0891
      7 C6          3.5772    2.3850    0.6265 C.ar      1 <0>        -0.1520
      8 C7          3.8832    2.1367   -0.7008 C.ar      1 <0>         0.1019
      9 C8          2.8672    2.0181   -1.6340 C.ar      1 <0>        -0.1467
     10 C9          1.5488    2.1423   -1.2387 C.ar      1 <0>        -0.0833
     11 F1          5.1723    2.0107   -1.0852 F         1 <0>        -0.1356
     12 N1         -0.0293    0.6826    2.1020 N.am      1 <0>        -0.7222
     13 C10         0.0483   -0.6399    2.3496 C.2       1 <0>         0.5227
     14 O1         -0.4719   -1.4304    1.5909 O.2       1 <0>        -0.5165
     15 C11         0.7812   -1.1366    3.5691 C.3       1 <0>        -0.1137
     16 H2          1.6626   -0.5234    3.7571 H         1 <0>         0.1118
     17 C12         1.1846   -2.6172    3.3885 C.3       1 <0>         0.1166
     18 N2          1.0072   -3.2198    4.7306 N.am      1 <0>        -0.6224
     19 C13        -0.2318   -2.5961    5.2540 C.3       1 <0>         0.1006
     20 C14        -0.1490   -1.1271    4.7937 C.3       1 <0>        -0.0730
     21 C15        -1.5330   -0.6186    4.4022 C.3       1 <0>        -0.1494
     22 C16        -2.4226   -0.5628    5.6474 C.3       1 <0>        -0.0078
     23 N3         -1.8163    0.3273    6.6447 N.4       1 <0>        -0.5044
     24 C17        -0.5265   -0.2184    7.0846 C.3       1 <0>        -0.0112
     25 C18         0.4432   -0.2595    5.9002 C.3       1 <0>        -0.1348
     26 C19         1.7945   -4.1293    5.3384 C.2       1 <0>         0.5879
     27 O2          2.8372   -4.4756    4.8176 O.2       1 <0>        -0.4991
     28 C20         1.3913   -4.7046    6.6358 C.ar      1 <0>        -0.1748
     29 C21         0.0419   -4.9400    6.9109 C.ar      1 <0>        -0.0587
     30 C22        -0.3281   -5.4780    8.1243 C.ar      1 <0>        -0.1673
     31 C23         0.6322   -5.7870    9.0739 C.ar      1 <0>        -0.0480
     32 C24         1.9690   -5.5595    8.8151 C.ar      1 <0>        -0.2138
     33 C25         2.3600   -5.0235    7.5969 C.ar      1 <0>         0.1859
     34 O3          3.6736   -4.8042    7.3391 O.3       1 <0>        -0.2930
     35 C26         4.6035   -5.1539    8.3662 C.3       1 <0>         0.0209
     36 H3         -2.3761    1.9891    2.0530 H         1 <0>         0.0552
     37 H4         -2.7642    1.6452    0.3502 H         1 <0>         0.0739
     38 H5         -2.6249    0.3095    1.5186 H         1 <0>         0.0623
     39 H6         -0.7815    2.9347   -0.3118 H         1 <0>         0.0959
     40 H7         -0.2541    3.2152    1.3649 H         1 <0>         0.0798
     41 H8          2.0193    2.7081    2.0537 H         1 <0>         0.1239
     42 H9          4.3689    2.4780    1.3551 H         1 <0>         0.1357
     43 H10         3.1048    1.8247   -2.6696 H         1 <0>         0.1389
     44 H11         0.7559    2.0454   -1.9656 H         1 <0>         0.1344
     45 H12         0.3868    1.3148    2.7088 H         1 <0>         0.3960
     46 H13         0.5311   -3.1034    2.6642 H         1 <0>         0.0994
     47 H14         2.2252   -2.6918    3.0730 H         1 <0>         0.0960
     48 H15        -1.1107   -3.0801    4.8281 H         1 <0>         0.0859
     49 H16        -0.2555   -2.6520    6.3423 H         1 <0>         0.0885
     50 H17        -1.4459    0.3792    3.9723 H         1 <0>         0.1009
     51 H18        -1.9748   -1.2938    3.6694 H         1 <0>         0.1243
     52 H19        -3.4072   -0.1840    5.3735 H         1 <0>         0.1395
     53 H20        -2.5227   -1.5637    6.0672 H         1 <0>         0.1330
     54 H21        -1.6727    1.2390    6.2369 H         1 <0>         0.4278
     55 H22        -0.1135    0.4143    7.8702 H         1 <0>         0.1398
     56 H23        -0.6718   -1.2275    7.4702 H         1 <0>         0.1329
     57 H24         1.3947   -0.6815    6.2236 H         1 <0>         0.1188
     58 H25         0.6017    0.7513    5.5245 H         1 <0>         0.0966
     59 H26        -0.7101   -4.7004    6.1737 H         1 <0>         0.1317
     60 H27        -1.3715   -5.6593    8.3361 H         1 <0>         0.1321
     61 H28         0.3332   -6.2080   10.0225 H         1 <0>         0.1341
     62 H29         2.7118   -5.8030    9.5604 H         1 <0>         0.1394
     63 H30         4.3822   -4.5814    9.2670 H         1 <0>         0.0589
     64 H31         4.5215   -6.2189    8.5834 H         1 <0>         0.0623
     65 H32         5.6161   -4.9283    8.0318 H         1 <0>         0.1079
     66 H33        -2.4333    0.4104    7.4388 H         1 <0>         0.4341
@<TRIPOS>BOND
     1    1    2 1
     2    1   36 1
     3    1   37 1
     4    1   38 1
     5    2    3 1
     6    2    4 1
     7    2   12 1
     8    4    5 1
     9    4   39 1
    10    4   40 1
    11    5   10 ar
    12    5    6 ar
    13    6    7 ar
    14    6   41 1
    15    7    8 ar
    16    7   42 1
    17    8    9 ar
    18    8   11 1
    19    9   10 ar
    20    9   43 1
    21   10   44 1
    22   12   13 am
    23   12   45 1
    24   13   14 2
    25   13   15 1
    26   15   16 1
    27   15   20 1
    28   15   17 1
    29   17   18 1
    30   17   46 1
    31   17   47 1
    32   18   19 1
    33   18   26 am
    34   19   20 1
    35   19   48 1
    36   19   49 1
    37   20   25 1
    38   20   21 1
    39   21   22 1
    40   21   50 1
    41   21   51 1
    42   22   23 1
    43   22   52 1
    44   22   53 1
    45   23   24 1
    46   23   54 1
    47   23   66 1
    48   24   25 1
    49   24   55 1
    50   24   56 1
    51   25   57 1
    52   25   58 1
    53   26   27 2
    54   26   28 1
    55   28   33 ar
    56   28   29 ar
    57   29   30 ar
    58   29   59 1
    59   30   31 ar
    60   30   60 1
    61   31   32 ar
    62   31   61 1
    63   32   33 ar
    64   32   62 1
    65   33   34 1
    66   34   35 1
    67   35   63 1
    68   35   64 1
    69   35   65 1
@<TRIPOS>MOLECULE
ZINC63384313
   63    67     0     0     0
SMALL
USER_CHARGES

@<TRIPOS>ATOM
      1 C1          0.1574    1.4562   -0.1043 C.3       1 <0>        -0.1859
      2 C2          0.1015   -0.0725   -0.0770 C.3       1 <0>        -0.0010
      3 N1         -1.2996   -0.5104   -0.0216 N.4       1 <0>        -0.3793
      4 C3         -1.9027   -0.0212    1.2204 C.3       1 <0>        -0.0437
      5 C4         -3.4138   -0.3180    1.2351 C.3       1 <0>        -0.0490
      6 C5         -3.5547   -1.7834    0.9048 C.2       1 <0>         0.1963
      7 C6         -4.2341   -2.7682    1.4731 C.ar      1 <0>        -0.2396
      8 C7         -5.2247   -2.7781    2.5620 C.ar      1 <0>         0.0365
      9 C8         -5.7118   -3.9959    2.9185 C.ar      1 <0>        -0.1939
     10 C9         -5.3182   -5.1910    2.3085 C.ar      1 <0>         0.0309
     11 C10        -4.4223   -5.2745    1.2928 C.ar      1 <0>        -0.2085
     12 C11        -3.8480   -4.0581    0.8226 C.ar      1 <0>         0.3020
     13 N2         -3.0007   -3.8456   -0.1421 N.pl3     1 <0>        -0.6168
     14 C12        -2.8072   -2.4036   -0.2724 C.3       1 <0>         0.0882
     15 H1         -3.2204   -2.0483   -1.2164 H         1 <0>         0.1641
     16 C13        -1.3463   -1.9778   -0.1170 C.3       1 <0>         0.1464
     17 H2         -0.7733   -2.3080   -0.9835 H         1 <0>         0.1634
     18 C14        -0.7704   -2.5866    1.1355 C.2       1 <0>        -0.4840
     19 H3         -1.2542   -2.8062    4.3303 H         1 <0>         0.4373
     20 C15        -1.3716   -2.3838    2.3421 C.2       1 <0>         0.4820
     21 N3         -0.8300   -2.9476    3.4695 N.am      1 <0>        -0.6402
     22 C16         0.2860   -3.6952    3.3892 C.2       1 <0>         0.6995
     23 O1          0.7518   -4.1865    4.3991 O.2       1 <0>        -0.5164
     24 N4          0.8938   -3.9073    2.2076 N.am      1 <0>        -0.5543
     25 C17         0.3914   -3.3766    1.0751 C.2       1 <0>         0.5790
     26 O2          0.9432   -3.5758    0.0067 O.2       1 <0>        -0.5320
     27 C18         2.1076   -4.7256    2.1510 C.3       1 <0>         0.1172
     28 C19         1.7253   -6.1904    1.9290 C.3       1 <0>        -0.0932
     29 C20         2.9739   -7.0322    1.8708 C.2       1 <0>        -0.1297
     30 C21         3.3651   -7.6138    2.9590 C.2       1 <0>        -0.1367
     31 C22         4.5916   -8.4726    3.0592 C.3       1 <0>        -0.0938
     32 C23         5.0497   -8.9022    1.6638 C.3       1 <0>        -0.1226
     33 C24         5.1116   -7.6578    0.7690 C.3       1 <0>        -0.1211
     34 C25         3.6830   -7.1489    0.5534 C.3       1 <0>        -0.0803
     35 O3         -2.4908   -1.6338    2.4270 O.3       1 <0>        -0.5304
     36 H4          1.1970    1.7811   -0.1454 H         1 <0>         0.1056
     37 H5         -0.3730    1.8235   -0.9829 H         1 <0>         0.0802
     38 H6         -0.3121    1.8531    0.7958 H         1 <0>         0.0806
     39 H7          0.5709   -0.4694   -0.9771 H         1 <0>         0.1313
     40 H8          0.6319   -0.4398    0.8016 H         1 <0>         0.1253
     41 H9         -1.4300   -0.5147    2.0696 H         1 <0>         0.1826
     42 H10        -1.7456    1.0545    1.2984 H         1 <0>         0.1243
     43 H11        -3.8263   -0.1148    2.2233 H         1 <0>         0.1427
     44 H12        -3.9220    0.2864    0.4837 H         1 <0>         0.0917
     45 H13        -5.5458   -1.8697    3.0499 H         1 <0>         0.1531
     46 H14        -6.4402   -4.0430    3.7145 H         1 <0>         0.1389
     47 H15        -5.7565   -6.1094    2.6702 H         1 <0>         0.1414
     48 H16        -4.1551   -6.2260    0.8573 H         1 <0>         0.1520
     49 H17         2.7369   -4.3858    1.3284 H         1 <0>         0.1033
     50 H18         2.6538   -4.6309    3.0895 H         1 <0>         0.1000
     51 H19         1.0960   -6.5303    2.7516 H         1 <0>         0.0699
     52 H20         1.1791   -6.2851    0.9905 H         1 <0>         0.0707
     53 H21         2.7721   -7.4718    3.8504 H         1 <0>         0.1039
     54 H22         5.3889   -7.9088    3.5435 H         1 <0>         0.0763
     55 H23         4.3653   -9.3578    3.6536 H         1 <0>         0.0736
     56 H24         6.0379   -9.3578    1.7266 H         1 <0>         0.0674
     57 H25         4.3390   -9.6169    1.2487 H         1 <0>         0.0641
     58 H26         5.7096   -6.8867    1.2546 H         1 <0>         0.0652
     59 H27         5.5553   -7.9191   -0.1918 H         1 <0>         0.0670
     60 H28         3.1411   -7.8437   -0.0883 H         1 <0>         0.0718
     61 H29         3.7186   -6.1705    0.0743 H         1 <0>         0.0698
     62 H30        -2.5714   -4.5277   -0.6819 H         1 <0>         0.4469
     63 H31        -1.7978   -0.1148   -0.8049 H         1 <0>         0.4101
@<TRIPOS>BOND
     1    1    2 1
     2    1   36 1
     3    1   37 1
     4    1   38 1
     5    2    3 1
     6    2   39 1
     7    2   40 1
     8    3   16 1
     9    3    4 1
    10    3   63 1
    11    4    5 1
    12    4   41 1
    13    4   42 1
    14    5    6 1
    15    5   43 1
    16    5   44 1
    17    6   14 1
    18    6    7 2
    19    7   12 ar
    20    7    8 ar
    21    8    9 ar
    22    8   45 1
    23    9   10 ar
    24    9   46 1
    25   10   11 ar
    26   10   47 1
    27   11   12 ar
    28   11   48 1
    29   12   13 2
    30   13   14 1
    31   13   62 1
    32   14   15 1
    33   14   16 1
    34   16   17 1
    35   16   18 1
    36   18   25 1
    37   18   20 2
    38   19   21 1
    39   20   35 1
    40   20   21 1
    41   21   22 am
    42   22   23 2
    43   22   24 am
    44   24   25 am
    45   24   27 1
    46   25   26 2
    47   27   28 1
    48   27   49 1
    49   27   50 1
    50   28   29 1
    51   28   51 1
    52   28   52 1
    53   29   34 1
    54   29   30 2
    55   30   31 1
    56   30   53 1
    57   31   32 1
    58   31   54 1
    59   31   55 1
    60   32   33 1
    61   32   56 1
    62   32   57 1
    63   33   34 1
    64   33   58 1
    65   33   59 1
    66   34   60 1
    67   34   61 1
@<TRIPOS>MOLECULE
ZINC33635875
   40    42     0     0     0
SMALL
USER_CHARGES
N-[2-(4-bromophenyl)-2-oxo-ethyl]-2-[(2S)-pyrrolidin-2-yl]oxazole-4-carboxamide
@<TRIPOS>ATOM
      1 C1         -0.0126    1.0758    0.0080 C.ar      1 <0>        -0.0485
      2 C2          1.1705    1.7828    0.0005 C.ar      1 <0>        -0.1024
      3 C3          1.1537    3.1680    0.0071 C.ar      1 <0>        -0.0560
      4 C4         -0.0504    3.8528    0.0218 C.ar      1 <0>        -0.1020
      5 C5         -1.2415    3.1593    0.0304 C.ar      1 <0>        -0.0650
      6 C6         -1.2324    1.7605    0.0174 C.ar      1 <0>        -0.1635
      7 C7         -2.4995    1.0131    0.0199 C.2       1 <0>         0.4002
      8 O1         -2.4882   -0.1995    0.0137 O.2       1 <0>        -0.4439
      9 C8         -3.8115    1.7543    0.0301 C.3       1 <0>         0.0714
     10 N1         -4.9161    0.7920    0.0307 N.am      1 <0>        -0.7161
     11 C9         -6.1909    1.2293    0.0392 C.2       1 <0>         0.6003
     12 O2         -6.4243    2.4228    0.0464 O.2       1 <0>        -0.5239
     13 C10        -7.3024    0.2609    0.0397 C.2       1 <0>        -0.0588
     14 C11        -8.6311    0.5552    0.0537 C.2       1 <0>         0.0605
     15 O3         -9.2910   -0.6140    0.0451 O.3       1 <0>        -0.1983
     16 C12        -8.3882   -1.6049    0.0356 C.2       1 <0>         0.1207
     17 N2         -7.1930   -1.0953    0.0323 N.2       1 <0>        -0.4041
     18 C13        -8.7089   -3.0774    0.0305 C.3       1 <0>         0.1488
     19 H1         -7.8061   -3.6254    0.3383 H         1 <0>         0.1786
     20 C14        -9.2126   -3.5001   -1.3656 C.3       1 <0>        -0.1395
     21 C15       -10.3349   -4.5200   -1.0381 C.3       1 <0>        -0.1446
     22 C16       -10.9467   -3.9099    0.2476 C.3       1 <0>        -0.0051
     23 N3         -9.7931   -3.3580    0.9895 N.4       1 <0>        -0.5431
     24 Br1         2.7824    4.1288   -0.0045 Br        1 <0>        -0.0288
     25 H2          0.0021   -0.0041    0.0020 H         1 <0>         0.1451
     26 H3          2.1131    1.2557   -0.0110 H         1 <0>         0.1442
     27 H4         -0.0559    4.9328    0.0269 H         1 <0>         0.1448
     28 H5         -2.1795    3.6945    0.0418 H         1 <0>         0.1439
     29 H6         -3.8712    2.3816    0.9317 H         1 <0>         0.1144
     30 H7         -3.8801    2.3907   -0.8645 H         1 <0>         0.1145
     31 H8         -4.7051   -0.2875    0.0242 H         1 <0>         0.4432
     32 H9         -9.0710    1.5414    0.0664 H         1 <0>         0.2483
     33 H10        -9.5879   -2.6167   -1.9029 H         1 <0>         0.1031
     34 H11        -8.3849   -3.9503   -1.9333 H         1 <0>         0.1254
     35 H12       -11.0450   -4.5657   -1.8770 H         1 <0>         0.1236
     36 H13        -9.8918   -5.5140   -0.8782 H         1 <0>         0.1068
     37 H14       -11.6683   -3.1260   -0.0260 H         1 <0>         0.1369
     38 H15       -11.4599   -4.6975    0.8189 H         1 <0>         0.1461
     39 H16        -9.4434   -4.0872    1.7352 H         1 <0>         0.4652
     40 H17       -10.0845   -2.4263    1.4964 H         1 <0>         0.4579
@<TRIPOS>BOND
     1    1    6 ar
     2    1    2 ar
     3    1   25 1
     4    2    3 ar
     5    2   26 1
     6    3    4 ar
     7    3   24 1
     8    4    5 ar
     9    4   27 1
    10    5    6 ar
    11    5   28 1
    12    6    7 1
    13    7    8 2
    14    7    9 1
    15    9   10 1
    16    9   29 1
    17    9   30 1
    18   10   11 am
    19   10   31 1
    20   11   12 2
    21   11   13 1
    22   13   17 1
    23   13   14 2
    24   14   15 1
    25   14   32 1
    26   15   16 1
    27   16   17 2
    28   16   18 1
    29   18   19 1
    30   18   23 1
    31   18   20 1
    32   20   21 1
    33   20   33 1
    34   20   34 1
    35   21   22 1
    36   21   35 1
    37   21   36 1
    38   22   23 1
    39   22   37 1
    40   22   38 1
    41   23   39 1
    42   23   40 1
@<TRIPOS>MOLECULE
ZINC51100254
   57    59     0     0     0
SMALL
USER_CHARGES

@<TRIPOS>ATOM
      1 C1         -0.0184    1.5028    0.0103 C.3       1 <0>        -0.0954
      2 C2          0.0021   -0.0041    0.0020 C.2       1 <0>         0.1665
      3 C3          0.0060   -0.7217   -1.1737 C.2       1 <0>        -0.3047
      4 S1          0.0318   -2.3903   -0.5375 S.3       1 <0>         0.1441
      5 C4          0.0348   -2.0122    1.1026 C.2       1 <0>         0.0724
      6 N1          0.0225   -0.6986    1.1125 N.2       1 <0>        -0.5214
      7 C5         -0.0077   -0.2476   -2.5617 C.2       1 <0>         0.6239
      8 O1         -0.0255    0.9462   -2.7967 O.2       1 <0>        -0.5117
      9 N2         -0.0007   -1.1342   -3.5768 N.am      1 <0>        -0.7262
     10 C6         -0.0143   -0.6606   -4.9631 C.3       1 <0>         0.1378
     11 C7          1.4180   -0.3656   -5.4176 C.3       1 <0>        -0.1613
     12 C8          1.4043    0.0521   -6.8896 C.3       1 <0>        -0.0023
     13 N3          0.8445   -1.0327   -7.7046 N.4       1 <0>        -0.3707
     14 C9         -0.5524   -1.2726   -7.3228 C.3       1 <0>        -0.0123
     15 C10        -0.6140   -1.7412   -5.8674 C.3       1 <0>        -0.1520
     16 C11         0.9053   -0.6584   -9.1238 C.3       1 <0>        -0.0336
     17 C12         0.4453   -1.8179   -9.9693 C.2       1 <0>         0.5000
     18 O2          0.1008   -2.8542   -9.4416 O.2       1 <0>        -0.5281
     19 N4          0.4168   -1.7035  -11.3119 N.am      1 <0>        -0.6935
     20 C13        -0.0303   -2.8308  -12.1338 C.3       1 <0>         0.1448
     21 C14         1.1459   -3.7762  -12.3861 C.3       1 <0>        -0.1330
     22 C15         2.2588   -3.0221  -13.1167 C.3       1 <0>        -0.1133
     23 C16         1.7285   -2.4998  -14.4534 C.3       1 <0>        -0.0966
     24 C17         0.5522   -1.5544  -14.2012 C.3       1 <0>        -0.1169
     25 C18        -0.5606   -2.3085  -13.4706 C.3       1 <0>        -0.1320
     26 C19         2.8413   -1.7457  -15.1841 C.3       1 <0>        -0.1510
     27 H1          1.0042    1.8801    0.0026 H         1 <0>         0.0853
     28 H2         -0.5455    1.8639   -0.8728 H         1 <0>         0.0953
     29 H3         -0.5286    1.8543    0.9071 H         1 <0>         0.0810
     30 H4          0.0481   -2.6877    1.9451 H         1 <0>         0.2304
     31 H5          0.0135   -2.0858   -3.3895 H         1 <0>         0.4061
     32 H6         -0.6142    0.2468   -5.0323 H         1 <0>         0.1098
     33 H7          1.8323    0.4419   -4.8139 H         1 <0>         0.1213
     34 H8          2.0292   -1.2602   -5.2988 H         1 <0>         0.0930
     35 H9          0.7931    0.9470   -7.0072 H         1 <0>         0.1357
     36 H10         2.4226    0.2632   -7.2164 H         1 <0>         0.1370
     37 H11        -1.1219   -0.3495   -7.4312 H         1 <0>         0.1299
     38 H12        -0.9787   -2.0395   -7.9694 H         1 <0>         0.1538
     39 H13        -0.0450   -2.6645   -5.7580 H         1 <0>         0.0967
     40 H14        -1.6521   -1.9171   -5.5853 H         1 <0>         0.1209
     41 H15         0.2575    0.2001   -9.3012 H         1 <0>         0.1601
     42 H16         1.9308   -0.4004   -9.3879 H         1 <0>         0.1605
     43 H17         0.6924   -0.8747  -11.7340 H         1 <0>         0.4091
     44 H18        -0.8231   -3.3680  -11.6133 H         1 <0>         0.0971
     45 H19         1.5237   -4.1482  -11.4337 H         1 <0>         0.0680
     46 H20         0.8133   -4.6149  -12.9976 H         1 <0>         0.0823
     47 H21         2.5914   -2.1833  -12.5051 H         1 <0>         0.0563
     48 H22         3.0967   -3.6956  -13.2964 H         1 <0>         0.0683
     49 H23         1.3958   -3.3385  -15.0650 H         1 <0>         0.0762
     50 H24         0.8849   -0.7157  -13.5897 H         1 <0>         0.0563
     51 H25         0.1744   -1.1824  -15.1535 H         1 <0>         0.0743
     52 H26        -0.8933   -3.1473  -14.0821 H         1 <0>         0.0891
     53 H27        -1.3986   -1.6350  -13.2909 H         1 <0>         0.0735
     54 H28         3.6793   -2.4192  -15.3638 H         1 <0>         0.0580
     55 H29         2.4635   -1.3737  -16.1364 H         1 <0>         0.0589
     56 H30         3.1740   -0.9070  -14.5725 H         1 <0>         0.0524
     57 H31         1.3815   -1.8741   -7.5575 H         1 <0>         0.4297
@<TRIPOS>BOND
     1    1    2 1
     2    1   27 1
     3    1   28 1
     4    1   29 1
     5    2    6 1
     6    2    3 2
     7    3    4 1
     8    3    7 1
     9    4    5 1
    10    5    6 2
    11    5   30 1
    12    7    8 2
    13    7    9 am
    14    9   10 1
    15    9   31 1
    16   10   15 1
    17   10   11 1
    18   10   32 1
    19   11   12 1
    20   11   33 1
    21   11   34 1
    22   12   13 1
    23   12   35 1
    24   12   36 1
    25   13   14 1
    26   13   16 1
    27   13   57 1
    28   14   15 1
    29   14   37 1
    30   14   38 1
    31   15   39 1
    32   15   40 1
    33   16   17 1
    34   16   41 1
    35   16   42 1
    36   17   18 2
    37   17   19 am
    38   19   20 1
    39   19   43 1
    40   20   25 1
    41   20   21 1
    42   20   44 1
    43   21   22 1
    44   21   45 1
    45   21   46 1
    46   22   23 1
    47   22   47 1
    48   22   48 1
    49   23   24 1
    50   23   26 1
    51   23   49 1
    52   24   25 1
    53   24   50 1
    54   24   51 1
    55   25   52 1
    56   25   53 1
    57   26   54 1
    58   26   55 1
    59   26   56 1
@<TRIPOS>MOLECULE
ZINC59403776
   50    53     0     0     0
SMALL
USER_CHARGES

@<TRIPOS>ATOM
      1 C1         -0.0168    1.3854    0.0097 C.ar      1 <0>        -0.1664
      2 C2          1.1625    2.0964    0.0022 C.ar      1 <0>        -0.0483
      3 C3          2.3788    1.4165   -0.0130 C.ar      1 <0>        -0.1009
      4 C4          2.4004    0.0116   -0.0207 C.ar      1 <0>         0.1213
      5 C5          1.1992   -0.6899   -0.0137 C.ar      1 <0>        -0.1629
      6 C6          0.0021   -0.0041    0.0020 C.ar      1 <0>         0.1285
      7 F1         -1.1621   -0.6895    0.0099 F         1 <0>        -0.1304
      8 N1          3.7217   -0.3808   -0.0346 N.pl3     1 <0>        -0.5830
      9 H1          4.0272   -1.3014   -0.0428 H         1 <0>         0.4258
     10 C7          4.5383    0.7131   -0.0361 C.2       1 <0>         0.0937
     11 C8          3.7884    1.8447   -0.0233 C.2       1 <0>        -0.1748
     12 C9          4.2880    3.2335   -0.0208 C.2       1 <0>        -0.0120
     13 C10         4.2073    3.9397   -1.1298 C.2       1 <0>        -0.1814
     14 C11         4.6920    5.3571   -1.2321 C.3       1 <0>         0.0256
     15 N2          4.8372    5.9459    0.1043 N.4       1 <0>        -0.3741
     16 C12         5.6707    5.0584    0.9307 C.3       1 <0>        -0.0038
     17 C13         4.8657    3.7942    1.2496 C.3       1 <0>        -0.1120
     18 C14         5.4801    7.2622   -0.0056 C.3       1 <0>        -0.0304
     19 C15         4.5741    8.2024   -0.7581 C.2       1 <0>         0.5024
     20 O1          3.4987    7.8142   -1.1629 O.2       1 <0>        -0.5186
     21 N3          4.9588    9.4747   -0.9812 N.am      1 <0>        -0.6920
     22 C16         4.0780   10.3887   -1.7127 C.3       1 <0>         0.1389
     23 H2          3.0375   10.1613   -1.4811 H         1 <0>         0.1231
     24 C17         4.3175   10.2419   -3.2245 C.3       1 <0>        -0.1403
     25 C18         3.6397   11.4092   -3.9819 C.3       1 <0>        -0.5770
     26 S1          3.6576   12.7629   -2.7371 S.o2      1 <0>         2.3813
     27 O2          4.5633   13.7713   -3.1637 O.2       1 <0>        -0.9198
     28 O3          2.3184   13.1153   -2.4181 O.2       1 <0>        -0.9188
     29 C19         4.3964   11.8577   -1.3126 C.3       1 <0>        -0.6043
     30 H3         -0.9606    1.9101    0.0260 H         1 <0>         0.1416
     31 H4          1.1448    3.1763    0.0078 H         1 <0>         0.1303
     32 H5          1.2036   -1.7699   -0.0195 H         1 <0>         0.1389
     33 H6          5.6178    0.6828   -0.0454 H         1 <0>         0.1778
     34 H7          3.7734    3.4784   -2.0047 H         1 <0>         0.1510
     35 H8          5.6564    5.3726   -1.7396 H         1 <0>         0.1346
     36 H9          3.9752    5.9426   -1.8080 H         1 <0>         0.1554
     37 H10         6.5751    4.7919    0.3838 H         1 <0>         0.1362
     38 H11         5.9368    5.5653    1.8582 H         1 <0>         0.1384
     39 H12         4.0576    4.0387    1.9390 H         1 <0>         0.1079
     40 H13         5.5219    3.0542    1.7077 H         1 <0>         0.1257
     41 H14         5.6679    7.6592    0.9919 H         1 <0>         0.1643
     42 H15         6.4245    7.1618   -0.5405 H         1 <0>         0.1631
     43 H16         5.8188    9.7852   -0.6574 H         1 <0>         0.4168
     44 H17         5.3890   10.2548   -3.4241 H         1 <0>         0.0936
     45 H18         3.8980    9.2961   -3.5673 H         1 <0>         0.1029
     46 H19         4.2189   11.6864   -4.8627 H         1 <0>         0.1506
     47 H20         2.6172   11.1498   -4.2563 H         1 <0>         0.1468
     48 H21         3.9054   12.1268   -0.3775 H         1 <0>         0.1523
     49 H22         5.4717   12.0259   -1.2535 H         1 <0>         0.1493
     50 H23         3.9277    6.0473    0.5293 H         1 <0>         0.4334
@<TRIPOS>BOND
     1    1    6 ar
     2    1    2 ar
     3    1   30 1
     4    2    3 ar
     5    2   31 1
     6    3   11 1
     7    3    4 ar
     8    4    5 ar
     9    4    8 1
    10    5    6 ar
    11    5   32 1
    12    6    7 1
    13    8    9 1
    14    8   10 1
    15   10   11 2
    16   10   33 1
    17   11   12 1
    18   12   17 1
    19   12   13 2
    20   13   14 1
    21   13   34 1
    22   14   15 1
    23   14   35 1
    24   14   36 1
    25   15   16 1
    26   15   18 1
    27   15   50 1
    28   16   17 1
    29   16   37 1
    30   16   38 1
    31   17   39 1
    32   17   40 1
    33   18   19 1
    34   18   41 1
    35   18   42 1
    36   19   20 2
    37   19   21 am
    38   21   22 1
    39   21   43 1
    40   22   23 1
    41   22   29 1
    42   22   24 1
    43   24   25 1
    44   24   44 1
    45   24   45 1
    46   25   26 1
    47   25   46 1
    48   25   47 1
    49   26   27 2
    50   26   28 2
    51   26   29 1
    52   29   48 1
    53   29   49 1
@<TRIPOS>MOLECULE
ZINC63842496
   37    39     0     0     0
SMALL
USER_CHARGES

@<TRIPOS>ATOM
      1 C1         -0.0163    1.3482    0.0095 C.ar      1 <0>        -0.1477
      2 C2          1.1658    2.1014    0.0022 C.ar      1 <0>         0.0541
      3 C3          2.3912    1.5352   -0.0125 C.ar      1 <0>        -0.2085
      4 C4          2.5288    0.1198   -0.0218 C.ar      1 <0>         0.3308
      5 N1          3.5868   -0.6543   -0.0369 N.pl3     1 <0>        -0.5797
      6 C5          3.1432   -2.0528   -0.0408 C.3       1 <0>         0.0642
      7 C6          1.6315   -2.0084   -0.0255 C.2       1 <0>         0.0791
      8 C7          1.2951   -0.6984   -0.0144 C.ar      1 <0>        -0.1546
      9 C8          0.0021   -0.0041    0.0020 C.ar      1 <0>        -0.0149
     10 C9          0.6905   -3.1856   -0.0239 C.3       1 <0>        -0.1034
     11 C10         0.4600   -3.6463   -1.4401 C.2       1 <0>         0.5205
     12 O1          1.0061   -3.0751   -2.3601 O.2       1 <0>        -0.5296
     13 N2         -0.3529   -4.6932   -1.6843 N.am      1 <0>        -0.5072
     14 N3         -0.5672   -5.1216   -3.0008 N.am      1 <0>        -0.5131
     15 C11        -1.3802   -6.1685   -3.2450 C.2       1 <0>         0.5949
     16 O2         -1.9277   -6.7411   -2.3226 O.2       1 <0>        -0.5099
     17 C12        -1.6058   -6.6194   -4.6310 C.2       1 <0>        -0.0050
     18 C13        -2.3986   -7.6417   -4.9502 C.2       1 <0>        -0.1344
     19 C14        -2.3710   -7.7757   -6.4633 C.3       1 <0>        -0.1273
     20 C15        -1.7582   -6.4198   -6.8902 C.3       1 <0>         0.1086
     21 H1         -2.5391   -5.6942   -7.1178 H         1 <0>         0.1327
     22 O3         -1.0321   -6.0322   -5.7101 O.3       1 <0>        -0.2961
     23 Br1        -0.5481   -6.6476   -8.4228 Br        1 <0>        -0.0885
     24 H2         -0.9665    1.8612    0.0259 H         1 <0>         0.1585
     25 H3          1.0933    3.1789    0.0083 H         1 <0>         0.1617
     26 H4          3.2717    2.1606   -0.0175 H         1 <0>         0.1617
     27 H5          3.4952   -2.5561   -0.9413 H         1 <0>         0.1776
     28 H6          3.5129   -2.5667    0.8465 H         1 <0>         0.1756
     29 H7         -0.9210   -0.5647    0.0081 H         1 <0>         0.1595
     30 H8          1.1268   -3.9987    0.5563 H         1 <0>         0.1484
     31 H9         -0.2596   -2.8905    0.4214 H         1 <0>         0.1450
     32 H10        -0.7897   -5.1501   -0.9484 H         1 <0>         0.4399
     33 H11        -0.1305   -4.6647   -3.7367 H         1 <0>         0.4429
     34 H12        -2.9560   -8.2599   -4.2620 H         1 <0>         0.1747
     35 H13        -1.7338   -8.6053   -6.7698 H         1 <0>         0.1151
     36 H14        -3.3784   -7.8915   -6.8630 H         1 <0>         0.1179
     37 H15         4.5087   -0.3528   -0.0446 H         1 <0>         0.4567
@<TRIPOS>BOND
     1    1    9 ar
     2    1    2 ar
     3    1   24 1
     4    2    3 ar
     5    2   25 1
     6    3    4 ar
     7    3   26 1
     8    4    8 ar
     9    4    5 2
    10    5    6 1
    11    5   37 1
    12    6    7 1
    13    6   27 1
    14    6   28 1
    15    7    8 2
    16    7   10 1
    17    8    9 ar
    18    9   29 1
    19   10   11 1
    20   10   30 1
    21   10   31 1
    22   11   12 2
    23   11   13 am
    24   13   14 1
    25   13   32 1
    26   14   15 am
    27   14   33 1
    28   15   16 2
    29   15   17 1
    30   17   22 1
    31   17   18 2
    32   18   19 1
    33   18   34 1
    34   19   20 1
    35   19   35 1
    36   19   36 1
    37   20   21 1
    38   20   22 1
    39   20   23 1
@<TRIPOS>MOLECULE
ZINC66981386
   51    53     0     0     0
SMALL
USER_CHARGES

@<TRIPOS>ATOM
      1 C1          2.2762    1.1627   -0.1914 C.3       1 <0>        -0.1719
      2 C2          1.8319   -0.2773   -0.1924 C.2       1 <0>         0.5150
      3 O1          2.2241   -1.0336    0.6710 O.2       1 <0>        -0.5170
      4 N1          0.9988   -0.7248   -1.1527 N.am      1 <0>        -0.6695
      5 C3          0.6707   -2.0857   -1.2173 C.ar      1 <0>         0.1323
      6 C4          0.6170   -2.8428   -0.0558 C.ar      1 <0>        -0.1005
      7 C5          0.2916   -4.1893   -0.1224 C.ar      1 <0>         0.1388
      8 C6          0.0200   -4.7780   -1.3526 C.ar      1 <0>         0.0777
      9 C7          0.0741   -4.0216   -2.5094 C.ar      1 <0>        -0.1437
     10 C8          0.3933   -2.6769   -2.4446 C.ar      1 <0>         0.0848
     11 F1          0.4401   -1.9389   -3.5753 F         1 <0>        -0.1247
     12 F2         -0.2966   -6.0898   -1.4179 F         1 <0>        -0.1312
     13 N2          0.2371   -4.9564    1.0496 N.am      1 <0>        -0.6727
     14 C9          0.0414   -4.3554    2.2399 C.2       1 <0>         0.7113
     15 O2         -0.0534   -3.1447    2.3014 O.2       1 <0>        -0.5451
     16 N3         -0.0491   -5.0963    3.3621 N.am      1 <0>        -0.6321
     17 C10         0.1777   -6.5473    3.3215 C.3       1 <0>         0.1126
     18 C11        -1.0282   -7.2527    3.9500 C.3       1 <0>        -0.1574
     19 C12        -1.2668   -6.6929    5.3542 C.3       1 <0>         0.0305
     20 C13        -1.5758   -5.1968    5.2631 C.3       1 <0>        -0.1571
     21 C14        -0.3706   -4.4673    4.6505 C.3       1 <0>         0.1334
     22 N4         -2.4022   -7.3904    5.9727 N.4       1 <0>        -0.3931
     23 C15        -2.0837   -8.8303    6.1501 C.3       1 <0>        -0.0068
     24 C16        -3.0627   -9.2751    7.2655 C.3       1 <0>        -0.1454
     25 C17        -3.0985   -8.0471    8.2040 C.3       1 <0>        -0.1447
     26 C18        -2.6467   -6.8610    7.3319 C.3       1 <0>        -0.0096
     27 H1          3.1909    1.2612   -0.7759 H         1 <0>         0.1028
     28 H2          1.4957    1.7841   -0.6306 H         1 <0>         0.0864
     29 H3          2.4632    1.4845    0.8331 H         1 <0>         0.1014
     30 H4          0.6263   -0.1049   -1.7991 H         1 <0>         0.4194
     31 H5          0.8286   -2.3842    0.8988 H         1 <0>         0.2042
     32 H6         -0.1369   -4.4804   -3.4641 H         1 <0>         0.1612
     33 H7          0.3402   -5.9198    1.0039 H         1 <0>         0.4101
     34 H8          0.2917   -6.8705    2.2868 H         1 <0>         0.0959
     35 H9          1.0784   -6.7923    3.8843 H         1 <0>         0.0900
     36 H10        -1.9115   -7.0808    3.3348 H         1 <0>         0.0936
     37 H11        -0.8313   -8.3229    4.0135 H         1 <0>         0.1030
     38 H12        -0.3742   -6.8430    5.9615 H         1 <0>         0.1402
     39 H13        -2.4539   -5.0442    4.6356 H         1 <0>         0.0925
     40 H14        -1.7686   -4.8037    6.2613 H         1 <0>         0.1027
     41 H15         0.4864   -4.5461    5.3195 H         1 <0>         0.0838
     42 H16        -0.6185   -3.4176    4.4929 H         1 <0>         0.1172
     43 H17        -2.2728   -9.3824    5.2295 H         1 <0>         0.1350
     44 H18        -1.0501   -8.9589    6.4716 H         1 <0>         0.1341
     45 H19        -4.0519   -9.4745    6.8535 H         1 <0>         0.0979
     46 H20        -2.6784  -10.1501    7.7897 H         1 <0>         0.1171
     47 H21        -4.1109   -7.8818    8.5724 H         1 <0>         0.1052
     48 H22        -2.4101   -8.1877    9.0374 H         1 <0>         0.1041
     49 H23        -1.7288   -6.4326    7.7343 H         1 <0>         0.1310
     50 H24        -3.4302   -6.1039    7.3001 H         1 <0>         0.1319
     51 H25        -3.2285   -7.2834    5.4037 H         1 <0>         0.4251
@<TRIPOS>BOND
     1    1    2 1
     2    1   27 1
     3    1   28 1
     4    1   29 1
     5    2    3 2
     6    2    4 am
     7    4    5 1
     8    4   30 1
     9    5   10 ar
    10    5    6 ar
    11    6    7 ar
    12    6   31 1
    13    7    8 ar
    14    7   13 1
    15    8    9 ar
    16    8   12 1
    17    9   10 ar
    18    9   32 1
    19   10   11 1
    20   13   14 am
    21   13   33 1
    22   14   15 2
    23   14   16 am
    24   16   21 1
    25   16   17 1
    26   17   18 1
    27   17   34 1
    28   17   35 1
    29   18   19 1
    30   18   36 1
    31   18   37 1
    32   19   20 1
    33   19   22 1
    34   19   38 1
    35   20   21 1
    36   20   39 1
    37   20   40 1
    38   21   41 1
    39   21   42 1
    40   22   26 1
    41   22   23 1
    42   22   51 1
    43   23   24 1
    44   23   43 1
    45   23   44 1
    46   24   25 1
    47   24   45 1
    48   24   46 1
    49   25   26 1
    50   25   47 1
    51   25   48 1
    52   26   49 1
    53   26   50 1
@<TRIPOS>MOLECULE
ZINC04233954
   41    42     0     0     0
SMALL
USER_CHARGES
methyl 2-[2-(2-methylpropanoylimino)-6-sulfamoyl-benzothiazol-3-yl]acetate
@<TRIPOS>ATOM
      1 C1          0.4652    2.3725   -1.5267 C.3       1 <0>        -0.1376
      2 C2         -0.9104    1.7916   -1.1930 C.3       1 <0>        -0.0863
      3 C3         -1.9865    2.5466   -1.9759 C.3       1 <0>        -0.1346
      4 C4         -1.1709    1.9342    0.2844 C.2       1 <0>         0.4935
      5 O1         -0.3362    2.4511    1.0019 O.2       1 <0>        -0.5208
      6 N1         -2.3127    1.4951    0.8031 N.2       1 <0>        -0.5683
      7 C5         -2.5429    1.6211    2.1083 C.2       1 <0>         0.4301
      8 N2         -3.6402    1.2357    2.8117 N.pl3     1 <0>        -0.5019
      9 C6         -3.7004    1.4514    4.1758 C.ar      1 <0>         0.1861
     10 C7         -4.7380    1.1268    5.0640 C.ar      1 <0>        -0.1388
     11 C8         -4.6323    1.4154    6.4038 C.ar      1 <0>         0.0177
     12 C9         -3.5042    2.0322    6.9187 C.ar      1 <0>        -0.6871
     13 C10        -2.4660    2.3628    6.0658 C.ar      1 <0>         0.0769
     14 C11        -2.5710    2.0750    4.7255 C.ar      1 <0>        -0.2140
     15 S1         -1.5116    2.3094    3.3207 S.3       1 <0>         0.1697
     16 S2         -3.3925    2.3923    8.6398 S.o2      1 <0>         2.7081
     17 O2         -2.4665    3.4620    8.7717 O.2       1 <0>        -0.9563
     18 O3         -4.7257    2.4746    9.1249 O.2       1 <0>        -0.9537
     19 N3         -2.7030    1.0765    9.3716 N.pl3     1 <0>        -1.2466
     20 C12        -4.7611    0.5912    2.1230 C.3       1 <0>         0.1067
     21 C13        -5.0078    1.2840    0.8076 C.2       1 <0>         0.4525
     22 O4         -4.4334    2.3155    0.5510 O.2       1 <0>        -0.4613
     23 O5         -5.8656    0.7550   -0.0790 O.3       1 <0>        -0.3553
     24 C14        -6.0541    1.4763   -1.3250 C.3       1 <0>         0.0401
     25 H1          0.4900    3.4274   -1.2536 H         1 <0>         0.0615
     26 H2          1.2318    1.8346   -0.9690 H         1 <0>         0.0608
     27 H3          0.6536    2.2694   -2.5953 H         1 <0>         0.0643
     28 H4         -0.9352    0.7367   -1.4662 H         1 <0>         0.0987
     29 H5         -1.9616    3.6015   -1.7027 H         1 <0>         0.0553
     30 H6         -1.7980    2.4435   -3.0445 H         1 <0>         0.0640
     31 H7         -2.9664    2.1327   -1.7381 H         1 <0>         0.0658
     32 H8         -5.6296    0.6453    4.6904 H         1 <0>         0.1459
     33 H9         -5.4439    1.1560    7.0675 H         1 <0>         0.1591
     34 H10        -1.5792    2.8445    6.4504 H         1 <0>         0.1606
     35 H11        -2.1656    1.1922   10.1708 H         1 <0>         0.4241
     36 H12        -2.8366    0.1900    9.0011 H         1 <0>         0.4180
     37 H13        -4.5225   -0.4569    1.9425 H         1 <0>         0.1307
     38 H14        -5.6554    0.6588    2.7425 H         1 <0>         0.1368
     39 H15        -6.4321    2.4763   -1.1124 H         1 <0>         0.0632
     40 H16        -5.1011    1.5520   -1.8487 H         1 <0>         0.0675
     41 H17        -6.7703    0.9422   -1.9493 H         1 <0>         0.1048
@<TRIPOS>BOND
     1    1    2 1
     2    1   25 1
     3    1   26 1
     4    1   27 1
     5    2    3 1
     6    2    4 1
     7    2   28 1
     8    3   29 1
     9    3   30 1
    10    3   31 1
    11    4    5 2
    12    4    6 1
    13    6    7 2
    14    7   15 1
    15    7    8 1
    16    8    9 1
    17    8   20 1
    18    9   14 ar
    19    9   10 ar
    20   10   11 ar
    21   10   32 1
    22   11   12 ar
    23   11   33 1
    24   12   13 ar
    25   12   16 1
    26   13   14 ar
    27   13   34 1
    28   14   15 1
    29   16   17 2
    30   16   18 2
    31   16   19 1
    32   19   35 1
    33   19   36 1
    34   20   21 1
    35   20   37 1
    36   20   38 1
    37   21   22 2
    38   21   23 1
    39   23   24 1
    40   24   39 1
    41   24   40 1
    42   24   41 1
@<TRIPOS>MOLECULE
ZINC47378519
   51    53     0     0     0
SMALL
USER_CHARGES

@<TRIPOS>ATOM
      1 C1         -0.0298    1.5275    0.0116 C.3       1 <0>        -0.1528
      2 C2         -0.0070   -0.0023    0.0031 C.3       1 <0>        -0.1210
      3 C3         -1.4417   -0.5338    0.0133 C.3       1 <0>        -0.0245
      4 C4         -1.4193   -2.0406    0.0049 C.2       1 <0>         0.0354
      5 N1         -1.4034   -2.8913    1.0113 N.2       1 <0>        -0.2315
      6 N2         -1.3864   -4.1311    0.7681 N.2       1 <0>        -0.2992
      7 C5         -1.3841   -4.5993   -0.4644 C.2       1 <0>         0.2512
      8 S1         -1.4148   -3.1794   -1.3727 S.3       1 <0>         0.0724
      9 N3         -1.3663   -5.9197   -0.9010 N.am      1 <0>        -0.6223
     10 C6         -1.3485   -6.9258   -0.0044 C.2       1 <0>         0.7052
     11 O1         -1.2546   -6.6806    1.1827 O.2       1 <0>        -0.5203
     12 N4         -1.4348   -8.2037   -0.4238 N.am      1 <0>        -0.6187
     13 C7         -1.4315   -8.5228   -1.8580 C.3       1 <0>         0.1047
     14 C8         -2.6594   -9.3822   -2.1747 C.3       1 <0>        -0.1356
     15 C9         -2.6696  -10.6078   -1.2582 C.3       1 <0>        -0.1008
     16 C10        -2.7603  -10.1550    0.2009 C.3       1 <0>        -0.1226
     17 H1         -3.6646   -9.5632    0.3426 H         1 <0>         0.1065
     18 C11        -1.5279   -9.3047    0.5447 C.3       1 <0>         0.1395
     19 C12        -2.8037  -11.3631    1.1007 C.2       1 <0>         0.5115
     20 O2         -2.7657  -12.4769    0.6225 O.2       1 <0>        -0.4611
     21 N5         -2.8845  -11.2056    2.4368 N.am      1 <0>        -0.6617
     22 C13        -2.9246  -12.3232    3.2691 C.ar      1 <0>         0.3574
     23 C14        -3.0138  -12.1535    4.6462 C.ar      1 <0>        -0.1710
     24 C15        -3.0528  -13.2712    5.4609 C.ar      1 <0>        -0.0506
     25 C16        -3.0010  -14.5254    4.8675 C.ar      1 <0>        -0.1984
     26 C17        -2.9128  -14.6197    3.4929 C.ar      1 <0>         0.1245
     27 N6         -2.8829  -13.5360    2.7409 N.ar      1 <0>        -0.4744
     28 C18        -3.0668  -10.7709    5.2435 C.3       1 <0>        -0.1116
     29 H2          0.9923    1.9061    0.0043 H         1 <0>         0.0606
     30 H3         -0.5571    1.8880   -0.8717 H         1 <0>         0.0579
     31 H4         -0.5408    1.8783    0.9082 H         1 <0>         0.0596
     32 H5          0.5040   -0.3531   -0.8935 H         1 <0>         0.0666
     33 H6          0.5202   -0.3627    0.8864 H         1 <0>         0.0719
     34 H7         -1.9528   -0.1830    0.9099 H         1 <0>         0.1073
     35 H8         -1.9690   -0.1733   -0.8700 H         1 <0>         0.0958
     36 H9         -1.3666   -6.1165   -1.8509 H         1 <0>         0.4231
     37 H10        -1.4715   -7.6006   -2.4376 H         1 <0>         0.0758
     38 H11        -0.5251   -9.0746   -2.1074 H         1 <0>         0.0832
     39 H12        -3.5647   -8.7977   -2.0107 H         1 <0>         0.0717
     40 H13        -2.6184   -9.7060   -3.2147 H         1 <0>         0.0881
     41 H14        -3.5291  -11.2337   -1.4983 H         1 <0>         0.0808
     42 H15        -1.7527  -11.1786   -1.4049 H         1 <0>         0.0780
     43 H16        -0.6292   -9.9189    0.4871 H         1 <0>         0.0811
     44 H17        -1.6315   -8.8986    1.5508 H         1 <0>         0.1010
     45 H18        -2.9149  -10.3147    2.8192 H         1 <0>         0.4175
     46 H19        -3.1215  -13.1703    6.5339 H         1 <0>         0.1383
     47 H20        -3.0290  -15.4179    5.4750 H         1 <0>         0.1366
     48 H21        -2.8719  -15.5931    3.0269 H         1 <0>         0.1593
     49 H22        -4.1051  -10.4488    5.3225 H         1 <0>         0.0753
     50 H23        -2.6146  -10.7860    6.2352 H         1 <0>         0.0765
     51 H24        -2.5190  -10.0780    4.6049 H         1 <0>         0.0641
@<TRIPOS>BOND
     1    1    2 1
     2    1   29 1
     3    1   30 1
     4    1   31 1
     5    2    3 1
     6    2   32 1
     7    2   33 1
     8    3    4 1
     9    3   34 1
    10    3   35 1
    11    4    8 1
    12    4    5 2
    13    5    6 1
    14    6    7 2
    15    7    8 1
    16    7    9 1
    17    9   10 am
    18    9   36 1
    19   10   11 2
    20   10   12 am
    21   12   18 1
    22   12   13 1
    23   13   14 1
    24   13   37 1
    25   13   38 1
    26   14   15 1
    27   14   39 1
    28   14   40 1
    29   15   16 1
    30   15   41 1
    31   15   42 1
    32   16   17 1
    33   16   18 1
    34   16   19 1
    35   18   43 1
    36   18   44 1
    37   19   20 2
    38   19   21 am
    39   21   22 1
    40   21   45 1
    41   22   27 ar
    42   22   23 ar
    43   23   24 ar
    44   23   28 1
    45   24   25 ar
    46   24   46 1
    47   25   26 ar
    48   25   47 1
    49   26   27 ar
    50   26   48 1
    51   28   49 1
    52   28   50 1
    53   28   51 1
@<TRIPOS>MOLECULE
ZINC59006649
   49    52     0     0     0
SMALL
USER_CHARGES

@<TRIPOS>ATOM
      1 C1         -1.3210    1.1564    0.1835 C.3       1 <0>        -0.1215
      2 C2         -0.6464   -0.1875    0.0854 C.ar      1 <0>        -0.0828
      3 C3         -0.6476   -0.8730   -1.1152 C.ar      1 <0>        -0.1028
      4 C4         -0.0315   -2.1038   -1.2129 C.ar      1 <0>        -0.0917
      5 C5          0.5958   -2.6610   -0.0970 C.ar      1 <0>        -0.0167
      6 C6          0.5971   -1.9698    1.1139 C.ar      1 <0>        -0.0652
      7 C7         -0.0201   -0.7312    1.2005 C.ar      1 <0>         0.1441
      8 N1         -0.0167   -0.0312    2.4114 N.am      1 <0>        -0.6676
      9 C8         -0.0914   -0.7022    3.5779 C.2       1 <0>         0.5586
     10 O1         -0.0777   -1.9177    3.5818 O.2       1 <0>        -0.4991
     11 C9         -0.1901    0.0401    4.8525 C.ar      1 <0>        -0.1182
     12 C10        -0.2119    1.4362    4.8503 C.ar      1 <0>        -0.1005
     13 C11        -0.3045    2.1265    6.0414 C.ar      1 <0>        -0.1045
     14 C12        -0.3760    1.4405    7.2396 C.ar      1 <0>        -0.1142
     15 C13        -0.3550    0.0512    7.2526 C.ar      1 <0>         0.1400
     16 C14        -0.2675   -0.6519    6.0610 C.ar      1 <0>        -0.0587
     17 N2         -0.4277   -0.6384    8.4683 N.am      1 <0>        -0.6731
     18 C15         0.2519   -1.7909    8.6309 C.2       1 <0>         0.5091
     19 O2          0.8591   -2.2737    7.6985 O.2       1 <0>        -0.4864
     20 C16         0.2572   -2.4798    9.9712 C.3       1 <0>         0.0676
     21 H1          0.6123   -1.7987   10.7446 H         1 <0>         0.1031
     22 C17        -1.1630   -2.9934   10.3177 C.3       1 <0>        -0.1488
     23 C18        -0.8272   -4.1498   11.2985 C.3       1 <0>        -0.1534
     24 C19         0.4986   -4.6927   10.7232 C.3       1 <0>         0.0464
     25 O3          1.0822   -3.6548    9.9246 O.3       1 <0>        -0.3519
     26 C20         1.2563   -3.9799   -0.1988 C.2       1 <0>         0.2134
     27 N3          1.8741   -4.6177    0.7674 N.2       1 <0>        -0.2690
     28 N4          2.3264   -5.7348    0.3169 N.2       1 <0>        -0.2865
     29 C21         2.0176   -5.8531   -0.9443 C.2       1 <0>         0.1443
     30 O4          1.3308   -4.7539   -1.3000 O.3       1 <0>        -0.2241
     31 H2         -0.6052    1.9411   -0.0616 H         1 <0>         0.0784
     32 H3         -2.1565    1.1955   -0.5155 H         1 <0>         0.0778
     33 H4         -1.6894    1.3048    1.1986 H         1 <0>         0.0680
     34 H5         -1.1326   -0.4438   -1.9795 H         1 <0>         0.1392
     35 H6         -0.0349   -2.6364   -2.1524 H         1 <0>         0.1350
     36 H7          1.0808   -2.3959    1.9804 H         1 <0>         0.1596
     37 H8          0.0394    0.9372    2.4117 H         1 <0>         0.4127
     38 H9         -0.1559    1.9757    3.9164 H         1 <0>         0.1276
     39 H10        -0.3209    3.2063    6.0377 H         1 <0>         0.1373
     40 H11        -0.4480    1.9863    8.1688 H         1 <0>         0.1341
     41 H12        -0.2553   -1.7318    6.0687 H         1 <0>         0.1550
     42 H13        -0.9671   -0.2869    9.1938 H         1 <0>         0.4135
     43 H14        -1.7515   -2.2191   10.8099 H         1 <0>         0.0945
     44 H15        -1.6731   -3.3670    9.4298 H         1 <0>         0.0866
     45 H16        -0.6847   -3.7710   12.3105 H         1 <0>         0.0833
     46 H17        -1.6026   -4.9155   11.2753 H         1 <0>         0.0895
     47 H18         1.1745   -4.9556   11.5369 H         1 <0>         0.0769
     48 H19         0.3023   -5.5695   10.1061 H         1 <0>         0.0759
     49 H20         2.2654   -6.6857   -1.5861 H         1 <0>         0.2654
@<TRIPOS>BOND
     1    1    2 1
     2    1   31 1
     3    1   32 1
     4    1   33 1
     5    2    7 ar
     6    2    3 ar
     7    3    4 ar
     8    3   34 1
     9    4    5 ar
    10    4   35 1
    11    5    6 ar
    12    5   26 1
    13    6    7 ar
    14    6   36 1
    15    7    8 1
    16    8    9 am
    17    8   37 1
    18    9   10 2
    19    9   11 1
    20   11   16 ar
    21   11   12 ar
    22   12   13 ar
    23   12   38 1
    24   13   14 ar
    25   13   39 1
    26   14   15 ar
    27   14   40 1
    28   15   16 ar
    29   15   17 1
    30   16   41 1
    31   17   18 am
    32   17   42 1
    33   18   19 2
    34   18   20 1
    35   20   21 1
    36   20   25 1
    37   20   22 1
    38   22   23 1
    39   22   43 1
    40   22   44 1
    41   23   24 1
    42   23   45 1
    43   23   46 1
    44   24   25 1
    45   24   47 1
    46   24   48 1
    47   26   30 1
    48   26   27 2
    49   27   28 1
    50   28   29 2
    51   29   30 1
    52   29   49 1
@<TRIPOS>MOLECULE
ZINC66248301
   52    55     0     0     0
SMALL
USER_CHARGES

@<TRIPOS>ATOM
      1 C1         -0.0164    1.3575    0.0095 C.2       1 <0>        -0.3130
      2 C2          1.3083    1.8032   -0.0007 C.2       1 <0>         0.0773
      3 N1          2.0942    0.7571   -0.0139 N.2       1 <0>        -0.2853
      4 N2          1.2969   -0.3945   -0.0124 N.pl3     1 <0>        -0.3740
      5 C3          0.0021   -0.0041    0.0020 C.2       1 <0>         0.3328
      6 N3         -1.1097   -0.8418    0.0085 N.pl3     1 <0>        -1.0357
      7 S1         -2.6339   -0.1948    0.0265 S.o2      1 <0>         2.7252
      8 O1         -3.5400   -1.2892    0.0027 O.2       1 <0>        -0.9468
      9 O2         -2.6478    0.7834    1.0571 O.2       1 <0>        -0.9296
     10 C4         -2.8502    0.6712   -1.4927 C.2       1 <0>        -0.7554
     11 C5         -2.5412    2.0150   -1.7255 C.2       1 <0>        -0.0071
     12 C6         -2.8639    2.2831   -3.0388 C.2       1 <0>        -0.0533
     13 N4         -3.3589    1.1227   -3.5895 N.pl3     1 <0>        -0.5288
     14 H1         -3.6663    1.0164   -4.5033 H         1 <0>         0.4237
     15 C7         -3.3399    0.1519   -2.6439 C.2       1 <0>         0.1521
     16 C8         -2.7089    3.5707   -3.7241 C.2       1 <0>         0.6054
     17 O3         -2.2571    4.5285   -3.1247 O.2       1 <0>        -0.5140
     18 N5         -3.0668    3.6929   -5.0177 N.am      1 <0>        -0.6224
     19 C9         -3.6293    2.6239   -5.8558 C.3       1 <0>         0.0834
     20 C10        -3.8575    3.2166   -7.2623 C.3       1 <0>        -0.1298
     21 C11        -2.8851    4.4252   -7.2922 C.3       1 <0>        -0.1344
     22 C12        -2.9651    4.9224   -5.8249 C.3       1 <0>         0.1055
     23 C13         1.7801   -1.7774   -0.0249 C.3       1 <0>         0.1638
     24 C14         2.6410   -2.0281    1.2148 C.3       1 <0>        -0.1272
     25 C15         3.1457   -3.4724    1.2018 C.3       1 <0>        -0.1175
     26 C16         3.9830   -3.7087   -0.0568 C.3       1 <0>        -0.1244
     27 C17         3.1221   -3.4581   -1.2965 C.3       1 <0>        -0.1173
     28 C18         2.6174   -2.0138   -1.2835 C.3       1 <0>        -0.1254
     29 H2         -0.8976    1.9818    0.0253 H         1 <0>         0.1590
     30 H3          1.6286    2.8346    0.0014 H         1 <0>         0.1898
     31 H4         -0.9915   -1.8046    0.0026 H         1 <0>         0.4247
     32 H5         -2.1279    2.7115   -1.0111 H         1 <0>         0.1700
     33 H6         -3.6648   -0.8684   -2.7845 H         1 <0>         0.1935
     34 H7         -2.9287    1.7909   -5.9138 H         1 <0>         0.0685
     35 H8         -4.5773    2.2853   -5.4379 H         1 <0>         0.0702
     36 H9         -3.5958    2.4919   -8.0333 H         1 <0>         0.0880
     37 H10        -4.8892    3.5488   -7.3781 H         1 <0>         0.0834
     38 H11        -1.8739    4.1069   -7.5457 H         1 <0>         0.0793
     39 H12        -3.2362    5.1922   -7.9824 H         1 <0>         0.0908
     40 H13        -3.8480    5.5451   -5.6805 H         1 <0>         0.0742
     41 H14        -2.0630    5.4750   -5.5623 H         1 <0>         0.0853
     42 H15         0.9299   -2.4595   -0.0208 H         1 <0>         0.0922
     43 H16         3.4913   -1.3461    1.2107 H         1 <0>         0.0818
     44 H17         2.0445   -1.8597    2.1115 H         1 <0>         0.0687
     45 H18         3.7590   -3.6509    2.0850 H         1 <0>         0.0720
     46 H19         2.2954   -4.1544    1.2059 H         1 <0>         0.0646
     47 H20         4.8332   -3.0267   -0.0609 H         1 <0>         0.0666
     48 H21         4.3425   -4.7377   -0.0660 H         1 <0>         0.0672
     49 H22         3.7186   -3.6265   -2.1931 H         1 <0>         0.0709
     50 H23         2.2718   -4.1401   -1.2924 H         1 <0>         0.0643
     51 H24         2.0041   -1.8352   -2.1667 H         1 <0>         0.0658
     52 H25         3.4677   -1.3318   -1.2876 H         1 <0>         0.0814
@<TRIPOS>BOND
     1    1    5 2
     2    1    2 1
     3    1   29 1
     4    2    3 2
     5    2   30 1
     6    3    4 1
     7    4    5 1
     8    4   23 1
     9    5    6 1
    10    6    7 1
    11    6   31 1
    12    7    8 2
    13    7    9 2
    14    7   10 1
    15   10   15 2
    16   10   11 1
    17   11   12 2
    18   11   32 1
    19   12   13 1
    20   12   16 1
    21   13   14 1
    22   13   15 1
    23   15   33 1
    24   16   17 2
    25   16   18 am
    26   18   22 1
    27   18   19 1
    28   19   20 1
    29   19   34 1
    30   19   35 1
    31   20   21 1
    32   20   36 1
    33   20   37 1
    34   21   22 1
    35   21   38 1
    36   21   39 1
    37   22   40 1
    38   22   41 1
    39   23   28 1
    40   23   24 1
    41   23   42 1
    42   24   25 1
    43   24   43 1
    44   24   44 1
    45   25   26 1
    46   25   45 1
    47   25   46 1
    48   26   27 1
    49   26   47 1
    50   26   48 1
    51   27   28 1
    52   27   49 1
    53   27   50 1
    54   28   51 1
    55   28   52 1
@<TRIPOS>MOLECULE
ZINC67000228
   49    51     0     0     0
SMALL
USER_CHARGES

@<TRIPOS>ATOM
      1 C1         -0.6437    2.0544    0.0549 C.3       1 <0>         0.0605
      2 N1         -0.5184    0.6126    0.2826 N.am      1 <0>        -0.5271
      3 C2         -0.5149    0.1089    1.5859 C.ar      1 <0>         0.2000
      4 C3         -0.2419   -1.2344    1.8124 C.ar      1 <0>        -0.1629
      5 C4         -0.2394   -1.7290    3.1018 C.ar      1 <0>        -0.0259
      6 C5         -0.5087   -0.8889    4.1668 C.ar      1 <0>        -0.0751
      7 C6         -0.7813    0.4486    3.9449 C.ar      1 <0>        -0.0259
      8 C7         -0.7789    0.9513    2.6587 C.ar      1 <0>        -0.1565
      9 N2         -0.5056   -1.4227    5.5474 N.pl3     1 <0>         0.0367
     10 O1         -0.2678   -2.5918    5.7430 O.2       1 <0>        -0.1603
     11 O2         -0.7408   -0.6895    6.4795 O.3       1 <0>        -0.1620
     12 C8         -0.4064   -0.2279   -0.7650 C.2       1 <0>         0.5102
     13 O3         -0.4089   -1.4279   -0.5832 O.2       1 <0>        -0.4827
     14 C9         -0.2792    0.3175   -2.1496 C.2       1 <0>         0.5111
     15 O4         -0.1728    1.5139   -2.3232 O.2       1 <0>        -0.5059
     16 N3         -0.2826   -0.5191   -3.2063 N.am      1 <0>        -0.6864
     17 C10        -0.1578    0.0158   -4.5644 C.3       1 <0>         0.0927
     18 C11        -0.2966   -1.1236   -5.5760 C.3       1 <0>         0.1712
     19 C12         0.7224   -2.2135   -5.2499 C.3       1 <0>        -0.1103
     20 C13         0.7185   -3.2367   -6.3919 C.3       1 <0>        -0.1172
     21 C14         1.3340   -2.5820   -7.6270 C.3       1 <0>        -0.0876
     22 C15         0.6751   -1.2568   -7.9076 C.ar      1 <0>        -0.0513
     23 C16        -0.0705   -0.5853   -6.9646 C.ar      1 <0>        -0.1137
     24 C17        -0.6463    0.6368   -7.2860 C.ar      1 <0>        -0.1143
     25 C18        -0.4803    1.1813   -8.5430 C.ar      1 <0>        -0.1223
     26 C19         0.2648    0.5053   -9.4908 C.ar      1 <0>        -0.1067
     27 C20         0.8394   -0.7081   -9.1727 C.ar      1 <0>        -0.1233
     28 O5         -1.6140   -1.6708   -5.4915 O.3       1 <0>        -0.5436
     29 H1          0.3478    2.4906   -0.0664 H         1 <0>         0.0821
     30 H2         -1.2308    2.2302   -0.8465 H         1 <0>         0.1064
     31 H3         -1.1413    2.5151    0.9083 H         1 <0>         0.0839
     32 H4         -0.0323   -1.8911    0.9811 H         1 <0>         0.1943
     33 H5         -0.0273   -2.7731    3.2786 H         1 <0>         0.1585
     34 H6         -0.9918    1.1018    4.7789 H         1 <0>         0.1594
     35 H7         -0.9868    1.9970    2.4865 H         1 <0>         0.1549
     36 H8         -0.3676   -1.4754   -3.0675 H         1 <0>         0.4181
     37 H9         -0.9416    0.7532   -4.7379 H         1 <0>         0.0846
     38 H10         0.8176    0.4881   -4.6807 H         1 <0>         0.0879
     39 H11         1.7146   -1.7722   -5.1559 H         1 <0>         0.0832
     40 H12         0.4486   -2.7046   -4.3161 H         1 <0>         0.0777
     41 H13         1.3076   -4.1081   -6.1062 H         1 <0>         0.0736
     42 H14        -0.3056   -3.5404   -6.6092 H         1 <0>         0.0776
     43 H15         2.3992   -2.4250   -7.4574 H         1 <0>         0.0798
     44 H16         1.2004   -3.2390   -8.4864 H         1 <0>         0.0795
     45 H17        -1.2292    1.1653   -6.5462 H         1 <0>         0.1222
     46 H18        -0.9313    2.1321   -8.7855 H         1 <0>         0.1253
     47 H19         0.3965    0.9254  -10.4770 H         1 <0>         0.1254
     48 H20         1.4217   -1.2355   -9.9137 H         1 <0>         0.1247
     49 H21        -2.3172   -1.0337   -5.6780 H         1 <0>         0.3797
@<TRIPOS>BOND
     1    1    2 1
     2    1   29 1
     3    1   30 1
     4    1   31 1
     5    2    3 1
     6    2   12 am
     7    3    8 ar
     8    3    4 ar
     9    4    5 ar
    10    4   32 1
    11    5    6 ar
    12    5   33 1
    13    6    7 ar
    14    6    9 1
    15    7    8 ar
    16    7   34 1
    17    8   35 1
    18    9   10 2
    19    9   11 1
    20   12   13 2
    21   12   14 1
    22   14   15 2
    23   14   16 am
    24   16   17 1
    25   16   36 1
    26   17   18 1
    27   17   37 1
    28   17   38 1
    29   18   23 1
    30   18   19 1
    31   18   28 1
    32   19   20 1
    33   19   39 1
    34   19   40 1
    35   20   21 1
    36   20   41 1
    37   20   42 1
    38   21   22 1
    39   21   43 1
    40   21   44 1
    41   22   27 ar
    42   22   23 ar
    43   23   24 ar
    44   24   25 ar
    45   24   45 1
    46   25   26 ar
    47   25   46 1
    48   26   27 ar
    49   26   47 1
    50   27   48 1
    51   28   49 1
@<TRIPOS>MOLECULE
ZINC07298559
   50    52     0     0     0
SMALL
USER_CHARGES
2-[[4-amino-5-(p-tolyl)-1,2,4-triazol-3-yl]sulfanyl]-N-(1,1-dioxothiolan-3-yl)-N-methyl-propanamide
@<TRIPOS>ATOM
      1 C1          2.9514   -5.9299   -0.0561 C.3       1 <0>        -0.1205
      2 C2          2.5038   -4.4910   -0.0448 C.ar      1 <0>        -0.0651
      3 C3          1.1894   -4.1763   -0.3411 C.ar      1 <0>        -0.1252
      4 C4          0.7730   -2.8611   -0.3321 C.ar      1 <0>        -0.0681
      5 C5          1.6809   -1.8470   -0.0232 C.ar      1 <0>        -0.0362
      6 C6          3.0066   -2.1709    0.2696 C.ar      1 <0>        -0.0851
      7 C7          3.4088   -3.4905    0.2623 C.ar      1 <0>        -0.1262
      8 C8          1.2418   -0.4353   -0.0121 C.2       1 <0>         0.2681
      9 N1          0.0021   -0.0041    0.0020 N.2       1 <0>        -0.2667
     10 N2         -0.0154    1.2809    0.0091 N.2       1 <0>        -0.2742
     11 C9          1.2129    1.7489   -0.0001 C.2       1 <0>         0.1094
     12 N3          2.0554    0.6742   -0.0139 N.pl3     1 <0>        -0.3021
     13 N4          3.4211    0.6962   -0.0265 N.3       1 <0>        -0.5815
     14 S1          1.6845    3.4467    0.0040 S.3       1 <0>         0.0663
     15 C10         0.0513    4.2265    0.0240 C.3       1 <0>        -0.1030
     16 H1         -0.5389    3.8555   -0.8139 H         1 <0>         0.1308
     17 C11        -0.6588    3.8894    1.3367 C.3       1 <0>        -0.1483
     18 C12         0.2067    5.7209   -0.0936 C.2       1 <0>         0.5404
     19 O1          1.2668    6.2435    0.1780 O.2       1 <0>        -0.5157
     20 N5         -0.8325    6.4764   -0.5008 N.am      1 <0>        -0.5937
     21 C13        -2.1131    5.8451   -0.8289 C.3       1 <0>         0.0584
     22 C14        -0.6814    7.9291   -0.6152 C.3       1 <0>         0.1355
     23 H2          0.3275    8.2186   -0.3211 H         1 <0>         0.1289
     24 C15        -0.9451    8.3661   -2.0657 C.3       1 <0>        -0.1390
     25 C16        -1.1046    9.9041   -2.1328 C.3       1 <0>        -0.5752
     26 S2         -1.7482   10.3168   -0.4601 S.o2      1 <0>         2.3756
     27 O2         -0.8046   11.1435    0.2073 O.2       1 <0>        -0.9268
     28 O3         -3.0968   10.7489   -0.5774 O.2       1 <0>        -0.9300
     29 C17        -1.7191    8.6389    0.3007 C.3       1 <0>        -0.5966
     30 H3          3.3037   -6.1931   -1.0534 H         1 <0>         0.0745
     31 H4          3.7603   -6.0644    0.6621 H         1 <0>         0.0693
     32 H5          2.1142   -6.5731    0.2150 H         1 <0>         0.0697
     33 H6          0.4880   -4.9619   -0.5803 H         1 <0>         0.1304
     34 H7         -0.2533   -2.6167   -0.5632 H         1 <0>         0.1354
     35 H8          3.7151   -1.3905    0.5051 H         1 <0>         0.1462
     36 H9          4.4333   -3.7429    0.4927 H         1 <0>         0.1284
     37 H10         3.7739    0.7069   -0.9717 H         1 <0>         0.3701
     38 H11         3.7750    1.4805    0.5004 H         1 <0>         0.3790
     39 H12        -0.7712    2.8086    1.4218 H         1 <0>         0.0936
     40 H13        -0.0686    4.2604    2.1747 H         1 <0>         0.0728
     41 H14        -1.6423    4.3590    1.3488 H         1 <0>         0.0764
     42 H15        -2.7342    5.7969    0.0656 H         1 <0>         0.0713
     43 H16        -2.6221    6.4318   -1.5935 H         1 <0>         0.0838
     44 H17        -1.9357    4.8367   -1.2028 H         1 <0>         0.0841
     45 H18        -0.1076    8.0614   -2.6933 H         1 <0>         0.1027
     46 H19        -1.8577    7.8915   -2.4264 H         1 <0>         0.0936
     47 H20        -0.1420   10.3853   -2.3061 H         1 <0>         0.1441
     48 H21        -1.8201   10.1851   -2.9056 H         1 <0>         0.1471
     49 H22        -2.6958    8.1594    0.2352 H         1 <0>         0.1451
     50 H23        -1.3709    8.6801    1.3327 H         1 <0>         0.1479
@<TRIPOS>BOND
     1    1    2 1
     2    1   30 1
     3    1   31 1
     4    1   32 1
     5    2    7 ar
     6    2    3 ar
     7    3    4 ar
     8    3   33 1
     9    4    5 ar
    10    4   34 1
    11    5    6 ar
    12    5    8 1
    13    6    7 ar
    14    6   35 1
    15    7   36 1
    16    8   12 1
    17    8    9 2
    18    9   10 1
    19   10   11 2
    20   11   12 1
    21   11   14 1
    22   12   13 1
    23   13   37 1
    24   13   38 1
    25   14   15 1
    26   15   16 1
    27   15   17 1
    28   15   18 1
    29   17   39 1
    30   17   40 1
    31   17   41 1
    32   18   19 2
    33   18   20 am
    34   20   21 1
    35   20   22 1
    36   21   42 1
    37   21   43 1
    38   21   44 1
    39   22   23 1
    40   22   29 1
    41   22   24 1
    42   24   25 1
    43   24   45 1
    44   24   46 1
    45   25   26 1
    46   25   47 1
    47   25   48 1
    48   26   27 2
    49   26   28 2
    50   26   29 1
    51   29   49 1
    52   29   50 1
@<TRIPOS>MOLECULE
ZINC20799769
   49    51     0     0     0
SMALL
USER_CHARGES
N-[5-(1,1-dioxo-1,2-thiazolidin-2-yl)-2-methyl-phenyl]-N'-(4-methoxyphenyl)oxamide
@<TRIPOS>ATOM
      1 C1          2.6601    0.9392    0.4958 C.3       1 <0>        -0.1164
      2 C2          1.3375    1.6508    0.3713 C.ar      1 <0>        -0.1373
      3 C3          0.1621    0.9248    0.3541 C.ar      1 <0>        -0.0552
      4 C4         -1.0520    1.5727    0.2339 C.ar      1 <0>        -0.1825
      5 C5         -1.0956    2.9589    0.1413 C.ar      1 <0>         0.2316
      6 C6          0.0828    3.6912    0.1583 C.ar      1 <0>        -0.1689
      7 C7          1.3015    3.0365    0.2734 C.ar      1 <0>         0.1786
      8 N1          2.4906    3.7701    0.2913 N.am      1 <0>        -0.6476
      9 C8          2.4740    5.0720    0.6394 C.2       1 <0>         0.5134
     10 O1          1.4444    5.5828    1.0301 O.2       1 <0>        -0.5019
     11 C9          3.7214    5.8858    0.5446 C.2       1 <0>         0.5110
     12 O2          4.7511    5.3750    0.1538 O.2       1 <0>        -0.5024
     13 N2          3.7048    7.1877    0.8927 N.am      1 <0>        -0.6515
     14 C10         4.8428    7.9777    0.6998 C.ar      1 <0>         0.1045
     15 C11         5.1330    9.0068    1.5867 C.ar      1 <0>        -0.0967
     16 C12         6.2593    9.7827    1.3985 C.ar      1 <0>        -0.1891
     17 C13         7.0954    9.5420    0.3177 C.ar      1 <0>         0.1191
     18 C14         6.8035    8.5178   -0.5717 C.ar      1 <0>        -0.1313
     19 C15         5.6805    7.7375   -0.3821 C.ar      1 <0>        -0.0793
     20 O3          8.2015   10.3099    0.1302 O.3       1 <0>        -0.3157
     21 C16         8.4410   11.3465    1.0842 C.3       1 <0>         0.0225
     22 N3         -2.3239    3.6136    0.0256 N.pl3     1 <0>        -0.9286
     23 C17        -2.6313    5.0011    0.4171 C.3       1 <0>         0.0579
     24 C18        -3.7550    5.5806   -0.4670 C.3       1 <0>        -0.1367
     25 C19        -4.8400    4.4632   -0.5207 C.3       1 <0>        -0.5948
     26 S1         -3.7529    2.9804   -0.5801 S.o2      1 <0>         2.5644
     27 O4         -3.4679    2.6187   -1.9245 O.2       1 <0>        -0.9409
     28 O5         -4.1715    2.0109    0.3707 O.2       1 <0>        -0.9431
     29 H1          2.4882   -0.1453    0.5610 H         1 <0>         0.0751
     30 H2          3.1778    1.2837    1.4032 H         1 <0>         0.0696
     31 H3          3.2796    1.1599   -0.3860 H         1 <0>         0.0694
     32 H4          0.1929   -0.1521    0.4304 H         1 <0>         0.1372
     33 H5         -1.9686    1.0018    0.2164 H         1 <0>         0.1289
     34 H6          0.0520    4.7680    0.0817 H         1 <0>         0.1555
     35 H7          3.4402    3.2850    0.0213 H         1 <0>         0.4529
     36 H8          2.7963    7.6290    1.3285 H         1 <0>         0.4494
     37 H9          4.4797    9.1973    2.4254 H         1 <0>         0.1318
     38 H10         6.4873   10.5801    2.0903 H         1 <0>         0.1346
     39 H11         7.4548    8.3312   -1.4127 H         1 <0>         0.1370
     40 H12         5.4534    6.9403   -1.0745 H         1 <0>         0.1410
     41 H13         9.3609   11.8866    0.8156 H         1 <0>         0.1033
     42 H14         8.5542   10.9046    2.0852 H         1 <0>         0.0573
     43 H15         7.5923   12.0462    1.0861 H         1 <0>         0.0574
     44 H16        -2.9585    5.0219    1.4671 H         1 <0>         0.0898
     45 H17        -1.7313    5.6228    0.3012 H         1 <0>         0.1066
     46 H18        -4.1430    6.5025   -0.0093 H         1 <0>         0.1195
     47 H19        -3.3552    5.8075   -1.4663 H         1 <0>         0.0985
     48 H20        -5.4717    4.5220    0.3779 H         1 <0>         0.1505
     49 H21        -5.4633    4.6001   -1.4167 H         1 <0>         0.1514
@<TRIPOS>BOND
     1    1    2 1
     2    1   29 1
     3    1   30 1
     4    1   31 1
     5    2    7 ar
     6    2    3 ar
     7    3    4 ar
     8    3   32 1
     9    4    5 ar
    10    4   33 1
    11    5    6 ar
    12    5   22 1
    13    6    7 ar
    14    6   34 1
    15    7    8 1
    16    8    9 am
    17    8   35 1
    18    9   10 2
    19    9   11 1
    20   11   12 2
    21   11   13 am
    22   13   14 1
    23   13   36 1
    24   14   19 ar
    25   14   15 ar
    26   15   16 ar
    27   15   37 1
    28   16   17 ar
    29   16   38 1
    30   17   18 ar
    31   17   20 1
    32   18   19 ar
    33   18   39 1
    34   19   40 1
    35   20   21 1
    36   21   41 1
    37   21   42 1
    38   21   43 1
    39   22   26 1
    40   22   23 1
    41   23   24 1
    42   23   44 1
    43   23   45 1
    44   24   25 1
    45   24   46 1
    46   24   47 1
    47   25   26 1
    48   25   48 1
    49   25   49 1
    50   26   27 2
    51   26   28 2
@<TRIPOS>MOLECULE
ZINC02201806
   50    53     0     0     0
SMALL
USER_CHARGES

@<TRIPOS>ATOM
      1 C1          0.6122    2.4344    1.4218 C.ar      1 <0>        -0.1807
      2 C2          1.1971    2.1475    0.2020 C.ar      1 <0>        -0.0708
      3 C3          2.3995    1.4698    0.1534 C.ar      1 <0>        -0.1999
      4 C4          3.0213    1.0764    1.3316 C.ar      1 <0>         0.2205
      5 C5          2.4310    1.3662    2.5552 C.ar      1 <0>        -0.2006
      6 C6          1.2285    2.0441    2.5966 C.ar      1 <0>        -0.0709
      7 N1          4.2372    0.3905    1.2861 N.pl3     1 <0>        -0.6258
      8 C7          4.9661    0.0773    2.5232 C.3       1 <0>         0.1074
      9 C8          5.2209   -1.4343    2.5726 C.3       1 <0>         0.1327
     10 N2          5.7940   -1.8561    1.2867 N.pl3     1 <0>        -0.6616
     11 C9          5.0651   -1.5430    0.0496 C.3       1 <0>         0.1300
     12 C10         4.8075   -0.0363    0.0006 C.3       1 <0>         0.1078
     13 C11         6.9916   -2.5318    1.2419 C.2       1 <0>         0.5143
     14 C12         7.0113   -3.9496    1.1965 C.2       1 <0>        -0.3480
     15 C13         8.2705   -4.6026    1.1512 C.2       1 <0>         0.5264
     16 O1          8.3370   -5.8182    1.1109 O.2       1 <0>        -0.5081
     17 N3          9.3938   -3.8527    1.1530 N.am      1 <0>        -0.4255
     18 C14        10.6073   -4.4715    1.1096 C.2       1 <0>         0.1046
     19 C15        11.7521   -3.7517    1.1101 C.2       1 <0>        -0.1622
     20 C16        11.7017   -2.3523    1.1561 C.2       1 <0>        -0.0201
     21 C17        10.4920   -1.7240    1.1997 C.2       1 <0>        -0.1389
     22 C18         9.3125   -2.4892    1.1975 C.2       1 <0>         0.4127
     23 N4          8.1345   -1.8638    1.2353 N.2       1 <0>        -0.5530
     24 C19         5.8154   -4.6880    1.1969 C.2       1 <0>         0.1370
     25 C20         5.5021   -5.5014    2.2778 C.2       1 <0>        -0.1354
     26 C21         6.4411   -5.6654    3.3464 C.1       1 <0>         0.2567
     27 N5          7.1860   -5.7955    4.1942 N.1       1 <0>        -0.4164
     28 C22         4.2096   -6.1925    2.3249 C.2       1 <0>         0.5821
     29 O2          3.4114   -6.0531    1.4166 O.2       1 <0>        -0.5330
     30 N6          3.9054   -6.9820    3.3740 N.am      1 <0>        -0.8487
     31 H1         -0.3259    2.9684    1.4571 H         1 <0>         0.1168
     32 H2          0.7129    2.4533   -0.7136 H         1 <0>         0.1197
     33 H3          2.8556    1.2457   -0.7996 H         1 <0>         0.1212
     34 H4          2.9116    1.0615    3.4730 H         1 <0>         0.1207
     35 H5          0.7689    2.2698    3.5475 H         1 <0>         0.1193
     36 H6          5.9175    0.6092    2.5319 H         1 <0>         0.0686
     37 H7          4.3693    0.3761    3.3850 H         1 <0>         0.0913
     38 H8          5.9206   -1.6612    3.3770 H         1 <0>         0.0779
     39 H9          4.2806   -1.9584    2.7436 H         1 <0>         0.0704
     40 H10         5.6619   -1.8417   -0.8122 H         1 <0>         0.0826
     41 H11         4.1137   -2.0748    0.0409 H         1 <0>         0.0723
     42 H12         4.1061    0.1874   -0.8031 H         1 <0>         0.0925
     43 H13         5.7474    0.4873   -0.1745 H         1 <0>         0.0672
     44 H14        10.6552   -5.5499    1.0747 H         1 <0>         0.1857
     45 H15        12.7064   -4.2562    1.0754 H         1 <0>         0.1652
     46 H16        12.6145   -1.7750    1.1574 H         1 <0>         0.1589
     47 H17        10.4404   -0.6459    1.2358 H         1 <0>         0.1707
     48 H18         5.1402   -4.6228    0.3565 H         1 <0>         0.1561
     49 H19         4.5414   -7.0931    4.0979 H         1 <0>         0.4005
     50 H20         3.0504   -7.4391    3.4052 H         1 <0>         0.4094
@<TRIPOS>BOND
     1    1    6 ar
     2    1    2 ar
     3    1   31 1
     4    2    3 ar
     5    2   32 1
     6    3    4 ar
     7    3   33 1
     8    4    5 ar
     9    4    7 1
    10    5    6 ar
    11    5   34 1
    12    6   35 1
    13    7   12 1
    14    7    8 1
    15    8    9 1
    16    8   36 1
    17    8   37 1
    18    9   10 1
    19    9   38 1
    20    9   39 1
    21   10   11 1
    22   10   13 1
    23   11   12 1
    24   11   40 1
    25   11   41 1
    26   12   42 1
    27   12   43 1
    28   13   23 1
    29   13   14 2
    30   14   15 1
    31   14   24 1
    32   15   16 2
    33   15   17 am
    34   17   22 1
    35   17   18 1
    36   18   19 2
    37   18   44 1
    38   19   20 1
    39   19   45 1
    40   20   21 2
    41   20   46 1
    42   21   22 1
    43   21   47 1
    44   22   23 2
    45   24   25 2
    46   24   48 1
    47   25   26 1
    48   25   28 1
    49   26   27 3
    50   28   29 2
    51   28   30 am
    52   30   49 1
    53   30   50 1
@<TRIPOS>MOLECULE
ZINC50558826
   60    63     0     0     0
SMALL
USER_CHARGES

@<TRIPOS>ATOM
      1 C1         -0.0186    1.5238    0.0104 C.3       1 <0>        -0.1249
      2 C2          1.4029    2.0777   -0.0002 C.3       1 <0>        -0.1247
      3 C3          2.3107    1.1461   -0.8089 C.3       1 <0>        -0.0368
      4 C4          2.8643    0.0832    0.1043 C.2       1 <0>         0.1836
      5 N1          4.1024   -0.3115    0.1934 N.2       1 <0>        -0.2927
      6 N2          4.1932   -1.2498    1.0704 N.2       1 <0>        -0.2795
      7 C5          3.0150   -1.4899    1.5823 C.2       1 <0>         0.1650
      8 N3          2.1438   -0.6431    0.9906 N.pl3     1 <0>        -0.4571
      9 C6          0.7108   -0.5178    1.2584 C.3       1 <0>         0.1029
     10 C7          0.0021   -0.0041    0.0020 C.3       1 <0>        -0.1399
     11 C8          2.6891   -2.5183    2.6345 C.3       1 <0>         0.2312
     12 C9          2.7488   -3.9334    2.0216 C.3       1 <0>        -0.1225
     13 C10         3.3830   -4.7779    3.1582 C.3       1 <0>        -0.1293
     14 C11         4.3800   -3.7669    3.7776 C.3       1 <0>         0.0936
     15 N4          3.6889   -2.4664    3.7111 N.am      1 <0>        -0.6005
     16 C12         3.9335   -1.4054    4.5054 C.2       1 <0>         0.5326
     17 O1          3.3013   -0.3806    4.3602 O.2       1 <0>        -0.5331
     18 C13         4.9927   -1.4923    5.5739 C.3       1 <0>         0.1285
     19 N5          5.0649   -0.2190    6.2947 N.am      1 <0>        -0.7371
     20 C14         5.9478   -0.0634    7.3010 C.2       1 <0>         0.7083
     21 O2          6.6844   -0.9798    7.6107 O.2       1 <0>        -0.5900
     22 N6          6.0142    1.1081    7.9641 N.am      1 <0>        -0.7430
     23 C15         6.9740    1.2773    9.0580 C.3       1 <0>         0.1454
     24 C16         6.8446    2.6878    9.6364 C.3       1 <0>        -0.1055
     25 C17         7.3214    3.7287    8.6025 C.3       1 <0>        -0.1227
     26 C18         8.0378    4.8075    9.4523 C.3       1 <0>        -0.1261
     27 C19         8.7574    3.9668   10.5360 C.3       1 <0>        -0.1261
     28 C20         7.7576    2.8391   10.8658 C.3       1 <0>        -0.1174
     29 H1         -0.5336    1.8716    0.9060 H         1 <0>         0.0703
     30 H2         -0.5505    1.8811   -0.8713 H         1 <0>         0.0748
     31 H3          1.4030    3.0687   -0.4541 H         1 <0>         0.0818
     32 H4          1.7730    2.1472    1.0227 H         1 <0>         0.0655
     33 H5          1.7342    0.6773   -1.6064 H         1 <0>         0.0930
     34 H6          3.1311    1.7201   -1.2396 H         1 <0>         0.1005
     35 H7          0.3054   -1.4920    1.5318 H         1 <0>         0.0932
     36 H8          0.5539    0.1844    2.0771 H         1 <0>         0.0920
     37 H9         -1.0207   -0.3805   -0.0169 H         1 <0>         0.0898
     38 H10         0.5332   -0.3547   -0.8829 H         1 <0>         0.0814
     39 H11         1.6957   -2.3298    3.0417 H         1 <0>         0.0922
     40 H12         1.7476   -4.2941    1.7858 H         1 <0>         0.0903
     41 H13         3.3822   -3.9430    1.1346 H         1 <0>         0.0889
     42 H14         2.6306   -5.0807    3.8864 H         1 <0>         0.0824
     43 H15         3.9059   -5.6453    2.7553 H         1 <0>         0.0947
     44 H16         4.5933   -4.0306    4.8135 H         1 <0>         0.0876
     45 H17         5.3011   -3.7373    3.1955 H         1 <0>         0.0833
     46 H18         4.7403   -2.2909    6.2716 H         1 <0>         0.0995
     47 H19         5.9574   -1.7041    5.1129 H         1 <0>         0.1010
     48 H20         4.4772    0.5122    6.0477 H         1 <0>         0.4067
     49 H21         5.4266    1.8393    7.7171 H         1 <0>         0.3972
     50 H22         6.7685    0.5444    9.8382 H         1 <0>         0.0670
     51 H23         7.9857    1.1312    8.6795 H         1 <0>         0.0686
     52 H24         5.8089    2.8836    9.9142 H         1 <0>         0.0785
     53 H25         8.0172    3.2746    7.8970 H         1 <0>         0.0697
     54 H26         6.4704    4.1609    8.0760 H         1 <0>         0.0644
     55 H27         8.7590    5.3586    8.8488 H         1 <0>         0.0666
     56 H28         7.3145    5.4850    9.9061 H         1 <0>         0.0668
     57 H29         9.6851    3.5511   10.1428 H         1 <0>         0.0666
     58 H30         8.9544    4.5726   11.4204 H         1 <0>         0.0662
     59 H31         7.1651    3.1093   11.7399 H         1 <0>         0.0680
     60 H32         8.2929    1.9077   11.0502 H         1 <0>         0.0694
@<TRIPOS>BOND
     1    1   10 1
     2    1    2 1
     3    1   29 1
     4    1   30 1
     5    2    3 1
     6    2   31 1
     7    2   32 1
     8    3    4 1
     9    3   33 1
    10    3   34 1
    11    4    8 1
    12    4    5 2
    13    5    6 1
    14    6    7 2
    15    7    8 1
    16    7   11 1
    17    8    9 1
    18    9   10 1
    19    9   35 1
    20    9   36 1
    21   10   37 1
    22   10   38 1
    23   11   15 1
    24   11   12 1
    25   11   39 1
    26   12   13 1
    27   12   40 1
    28   12   41 1
    29   13   14 1
    30   13   42 1
    31   13   43 1
    32   14   15 1
    33   14   44 1
    34   14   45 1
    35   15   16 am
    36   16   17 2
    37   16   18 1
    38   18   19 1
    39   18   46 1
    40   18   47 1
    41   19   20 am
    42   19   48 1
    43   20   21 2
    44   20   22 am
    45   22   23 1
    46   22   49 1
    47   23   24 1
    48   23   50 1
    49   23   51 1
    50   24   28 1
    51   24   25 1
    52   24   52 1
    53   25   26 1
    54   25   53 1
    55   25   54 1
    56   26   27 1
    57   26   55 1
    58   26   56 1
    59   27   28 1
    60   27   57 1
    61   27   58 1
    62   28   59 1
    63   28   60 1
@<TRIPOS>MOLECULE
ZINC67052042
   41    44     0     0     0
SMALL
USER_CHARGES

@<TRIPOS>ATOM
      1 C1         -0.0127    1.0858    0.0080 C.3       1 <0>         0.0714
      2 N1         -0.7213    1.5711   -1.1789 N.pl3     1 <0>        -0.4932
      3 C2         -0.9309    2.8878   -1.5075 C.2       1 <0>         0.2800
      4 N2         -1.5904    2.9409   -2.6197 N.2       1 <0>        -0.2662
      5 N3         -1.8293    1.6279   -3.0484 N.pl3     1 <0>        -0.4705
      6 C3         -1.2737    0.8013   -2.1379 C.2       1 <0>         0.4708
      7 S1         -1.2741   -0.9099   -2.1889 S.2       1 <0>        -0.5680
      8 C4         -0.4692    4.0763   -0.7042 C.3       1 <0>        -0.0558
      9 C5         -0.9000    5.3653   -1.4069 C.3       1 <0>         0.1269
     10 N4         -0.4511    6.5207   -0.6260 N.am      1 <0>        -0.7169
     11 C6         -0.7196    7.7697   -1.0553 C.2       1 <0>         0.5953
     12 O1         -1.3346    7.9376   -2.0912 O.2       1 <0>        -0.5272
     13 C7         -0.2683    8.9314   -0.2702 C.2       1 <0>        -0.0143
     14 C8         -0.5405   10.2044   -0.6950 C.2       1 <0>        -0.1949
     15 S2          0.1627   11.1479    0.5083 S.3       1 <0>         0.1875
     16 C9          0.7920    9.8284    1.5310 C.2       1 <0>         0.1119
     17 N5          0.4026    8.7587    0.8609 N.2       1 <0>        -0.4568
     18 C10         1.5470    9.9106    2.7995 C.ar      1 <0>        -0.0071
     19 C11         1.9572    8.7439    3.4462 C.ar      1 <0>        -0.0573
     20 C12         2.6614    8.8223    4.6293 C.ar      1 <0>        -0.1000
     21 C13         2.9644   10.0588    5.1807 C.ar      1 <0>         0.0555
     22 C14         2.5576   11.2281    4.5392 C.ar      1 <0>         0.0373
     23 C15         1.8560   11.1552    3.3501 C.ar      1 <0>        -0.0773
     24 O2          2.9755   12.2981    5.2772 O.3       1 <0>        -0.3038
     25 C16         3.2830   11.7692    6.5805 C.3       1 <0>         0.2122
     26 O3          3.6366   10.3983    6.3191 O.3       1 <0>        -0.3035
     27 H1          0.0021   -0.0041    0.0020 H         1 <0>         0.1210
     28 H2          1.0099    1.4631    0.0003 H         1 <0>         0.0929
     29 H3         -0.5229    1.4373    0.9048 H         1 <0>         0.0930
     30 H4         -2.3028    1.3627   -3.8524 H         1 <0>         0.4710
     31 H5         -0.9146    4.0381    0.2900 H         1 <0>         0.1142
     32 H6          0.6171    4.0558   -0.6166 H         1 <0>         0.1142
     33 H7         -0.4546    5.4035   -2.4010 H         1 <0>         0.0840
     34 H8         -1.9863    5.3858   -1.4944 H         1 <0>         0.0840
     35 H9          0.0394    6.3868    0.2001 H         1 <0>         0.4112
     36 H10        -1.0722   10.5227   -1.5796 H         1 <0>         0.2120
     37 H11         1.7229    7.7795    3.0202 H         1 <0>         0.1516
     38 H12         2.9777    7.9183    5.1283 H         1 <0>         0.1466
     39 H13         1.5437   12.0601    2.8502 H         1 <0>         0.1412
     40 H14         4.1239   12.3040    7.0222 H         1 <0>         0.1371
     41 H15         2.4100   11.8221    7.2310 H         1 <0>         0.0902
@<TRIPOS>BOND
     1    1   27 1
     2    1   28 1
     3    1   29 1
     4    1    2 1
     5    2    6 1
     6    2    3 1
     7    3    8 1
     8    3    4 2
     9    4    5 1
    10    5    6 1
    11    5   30 1
    12    6    7 2
    13    8    9 1
    14    8   31 1
    15    8   32 1
    16    9   10 1
    17    9   33 1
    18    9   34 1
    19   10   11 am
    20   10   35 1
    21   11   12 2
    22   11   13 1
    23   13   17 1
    24   13   14 2
    25   14   15 1
    26   14   36 1
    27   15   16 1
    28   16   17 2
    29   16   18 1
    30   18   23 ar
    31   18   19 ar
    32   19   20 ar
    33   19   37 1
    34   20   21 ar
    35   20   38 1
    36   21   26 1
    37   21   22 ar
    38   22   23 ar
    39   22   24 1
    40   23   39 1
    41   24   25 1
    42   25   26 1
    43   25   40 1
    44   25   41 1
@<TRIPOS>MOLECULE
ZINC12941652
   44    47     0     0     0
SMALL
USER_CHARGES
1-(1,3-benzoxazol-2-yl)-N'-(furan-2-carbonyl)piperidine-4-carbohydrazide
@<TRIPOS>ATOM
      1 C1          1.1700    2.0908    0.0021 C.ar      1 <0>        -0.1133
      2 C2          2.3814    1.4166   -0.0139 C.ar      1 <0>        -0.0999
      3 C3          2.4142    0.0367   -0.0212 C.ar      1 <0>        -0.0875
      4 C4          1.2300   -0.6822   -0.0133 C.ar      1 <0>         0.0024
      5 C5          0.0021   -0.0041    0.0020 C.ar      1 <0>         0.0414
      6 C6         -0.0168    1.3913    0.0097 C.ar      1 <0>        -0.0686
      7 N1         -0.9697   -0.9575    0.0062 N.2       1 <0>        -0.4890
      8 C7         -0.4011   -2.1360   -0.0056 C.2       1 <0>         0.4242
      9 O1          0.9368   -2.0030   -0.0176 O.3       1 <0>        -0.2338
     10 N2         -1.0744   -3.3366   -0.0060 N.pl3     1 <0>        -0.4224
     11 C8         -2.0145   -3.4123   -1.1316 C.3       1 <0>         0.0620
     12 C9         -2.8462   -4.6920   -1.0181 C.3       1 <0>        -0.1131
     13 C10        -1.9116   -5.9048   -1.0269 C.3       1 <0>        -0.1011
     14 C11        -0.9118   -5.7772    0.1257 C.3       1 <0>        -0.0964
     15 C12        -0.1362   -4.4662   -0.0209 C.3       1 <0>         0.0476
     16 C13        -2.7191   -7.1657   -0.8560 C.2       1 <0>         0.5232
     17 O2         -2.5158   -7.8918    0.0939 O.2       1 <0>        -0.5274
     18 N3         -3.6670   -7.4864   -1.7588 N.am      1 <0>        -0.5204
     19 N4         -4.4176   -8.6587   -1.5999 N.am      1 <0>        -0.5143
     20 C14        -5.3656   -8.9794   -2.5027 C.2       1 <0>         0.6092
     21 O3         -5.5695   -8.2508   -3.4559 O.2       1 <0>        -0.5181
     22 C15        -6.1514  -10.2065   -2.3364 C.2       1 <0>        -0.0848
     23 C16        -7.1368  -10.6477   -3.1723 C.2       1 <0>        -0.1017
     24 C17        -7.6130  -11.8532   -2.6337 C.2       1 <0>        -0.2258
     25 C18        -6.9064  -12.0920   -1.5069 C.2       1 <0>         0.0079
     26 O4         -6.0232  -11.1001   -1.3338 O.3       1 <0>        -0.1652
     27 H1          1.1567    3.1707    0.0077 H         1 <0>         0.1384
     28 H2          3.3058    1.9750   -0.0200 H         1 <0>         0.1411
     29 H3          3.3616   -0.4817   -0.0334 H         1 <0>         0.1346
     30 H4         -0.9582    1.9207    0.0170 H         1 <0>         0.1368
     31 H5         -2.6760   -2.5463   -1.1112 H         1 <0>         0.1085
     32 H6         -1.4586   -3.4225   -2.0691 H         1 <0>         0.0589
     33 H7         -3.5331   -4.7557   -1.8621 H         1 <0>         0.0897
     34 H8         -3.4136   -4.6766   -0.0875 H         1 <0>         0.0908
     35 H9         -1.3730   -5.9427   -1.9738 H         1 <0>         0.1092
     36 H10        -0.2166   -6.6163    0.0990 H         1 <0>         0.0920
     37 H11        -1.4483   -5.7785    1.0746 H         1 <0>         0.0910
     38 H12         0.4110   -4.4714   -0.9636 H         1 <0>         0.0619
     39 H13         0.5665   -4.3656    0.8063 H         1 <0>         0.0988
     40 H14        -3.8295   -6.9057   -2.5185 H         1 <0>         0.4338
     41 H15        -4.2551   -9.2394   -0.8402 H         1 <0>         0.4381
     42 H16        -7.4829  -10.1628   -4.0731 H         1 <0>         0.1644
     43 H17        -8.3971  -12.4731   -3.0427 H         1 <0>         0.1618
     44 H18        -7.0306  -12.9443   -0.8554 H         1 <0>         0.2151
@<TRIPOS>BOND
     1    1    6 ar
     2    1    2 ar
     3    1   27 1
     4    2    3 ar
     5    2   28 1
     6    3    4 ar
     7    3   29 1
     8    4    9 1
     9    4    5 ar
    10    5    6 ar
    11    5    7 1
    12    6   30 1
    13    7    8 2
    14    8    9 1
    15    8   10 1
    16   10   15 1
    17   10   11 1
    18   11   12 1
    19   11   31 1
    20   11   32 1
    21   12   13 1
    22   12   33 1
    23   12   34 1
    24   13   14 1
    25   13   16 1
    26   13   35 1
    27   14   15 1
    28   14   36 1
    29   14   37 1
    30   15   38 1
    31   15   39 1
    32   16   17 2
    33   16   18 am
    34   18   19 1
    35   18   40 1
    36   19   20 am
    37   19   41 1
    38   20   21 2
    39   20   22 1
    40   22   26 1
    41   22   23 2
    42   23   24 1
    43   23   42 1
    44   24   25 2
    45   24   43 1
    46   25   26 1
    47   25   44 1
@<TRIPOS>MOLECULE
ZINC13372046
   46    51     0     0     0
SMALL
USER_CHARGES

@<TRIPOS>ATOM
      1 C1         -0.6441    2.1259    0.4194 C.ar      1 <0>        -0.0778
      2 C2          0.4363    2.9875    0.4680 C.ar      1 <0>        -0.1007
      3 C3          1.7180    2.5043    0.2633 C.ar      1 <0>         0.0384
      4 C4          1.9152    1.1489    0.0090 C.ar      1 <0>         0.0316
      5 C5          0.8283    0.2917   -0.0384 C.ar      1 <0>        -0.0878
      6 C6         -0.4486    0.7811    0.1671 C.ar      1 <0>        -0.0817
      7 C7         -1.6295   -0.1536    0.1152 C.3       1 <0>         0.1288
      8 H1         -1.3716   -1.0587   -0.4348 H         1 <0>         0.0916
      9 C8         -2.0966   -0.5081    1.5432 C.3       1 <0>        -0.1358
     10 H2         -1.7564    0.2076    2.2917 H         1 <0>         0.1242
     11 C9         -1.6703   -1.9578    1.8587 C.3       1 <0>         0.0549
     12 O1         -2.7341   -2.7811    1.3346 O.3       1 <0>        -0.3667
     13 C10        -3.9537   -2.0862    1.6723 C.3       1 <0>         0.2964
     14 C11        -3.6474   -0.5756    1.4212 C.3       1 <0>         0.1078
     15 C12        -3.9149   -0.2531   -0.0646 C.3       1 <0>         0.0203
     16 O2         -2.7611    0.5008   -0.4975 O.3       1 <0>        -0.3485
     17 O3         -4.3209    0.3020    2.3258 O.3       1 <0>        -0.5131
     18 C13        -5.0822   -2.5476    0.7866 C.ar      1 <0>        -0.1168
     19 C14        -4.8050   -3.1436   -0.4297 C.ar      1 <0>        -0.0781
     20 C15        -5.8367   -3.5690   -1.2455 C.ar      1 <0>        -0.1018
     21 C16        -7.1522   -3.3984   -0.8456 C.ar      1 <0>         0.0476
     22 C17        -7.4315   -2.7980    0.3796 C.ar      1 <0>         0.0333
     23 C18        -6.3922   -2.3793    1.1945 C.ar      1 <0>        -0.0795
     24 O4         -8.7859   -2.7459    0.5412 O.3       1 <0>        -0.3049
     25 C19        -9.3380   -2.9477   -0.7732 C.3       1 <0>         0.2122
     26 O5         -8.3316   -3.7225   -1.4516 O.3       1 <0>        -0.3055
     27 O6         -4.2815   -2.2973    3.0471 O.3       1 <0>        -0.5403
     28 O7          3.2517    0.9259   -0.1557 O.3       1 <0>        -0.3076
     29 C20         3.8297    2.2209   -0.4051 C.3       1 <0>         0.2130
     30 O8          2.9312    3.1300    0.2579 O.3       1 <0>        -0.3078
     31 H3         -1.6425    2.5037    0.5833 H         1 <0>         0.1442
     32 H4          0.2806    4.0379    0.6653 H         1 <0>         0.1391
     33 H5          0.9782   -0.7596   -0.2353 H         1 <0>         0.1377
     34 H6         -0.7292   -2.1928    1.3614 H         1 <0>         0.1074
     35 H7         -1.5767   -2.0995    2.9353 H         1 <0>         0.0796
     36 H8         -4.0028   -1.1732   -0.6422 H         1 <0>         0.0881
     37 H9         -4.8195    0.3465   -0.1653 H         1 <0>         0.1042
     38 H10        -5.2852    0.2699    2.2604 H         1 <0>         0.3840
     39 H11        -3.7801   -3.2768   -0.7434 H         1 <0>         0.1494
     40 H12        -5.6172   -4.0343   -2.1951 H         1 <0>         0.1430
     41 H13        -6.6058   -1.9175    2.1472 H         1 <0>         0.1446
     42 H14       -10.2740   -3.5032   -0.7144 H         1 <0>         0.1358
     43 H15        -9.4893   -1.9924   -1.2759 H         1 <0>         0.0888
     44 H16        -4.4392   -3.2235    3.2761 H         1 <0>         0.3881
     45 H17         4.8278    2.2848    0.0283 H         1 <0>         0.1338
     46 H18         3.8618    2.4264   -1.4751 H         1 <0>         0.0865
@<TRIPOS>BOND
     1    1    6 ar
     2    1    2 ar
     3    1   31 1
     4    2    3 ar
     5    2   32 1
     6    3   30 1
     7    3    4 ar
     8    4    5 ar
     9    4   28 1
    10    5    6 ar
    11    5   33 1
    12    6    7 1
    13    7    8 1
    14    7   16 1
    15    7    9 1
    16    9   10 1
    17    9   14 1
    18    9   11 1
    19   11   12 1
    20   11   34 1
    21   11   35 1
    22   12   13 1
    23   13   14 1
    24   13   18 1
    25   13   27 1
    26   14   15 1
    27   14   17 1
    28   15   16 1
    29   15   36 1
    30   15   37 1
    31   17   38 1
    32   18   23 ar
    33   18   19 ar
    34   19   20 ar
    35   19   39 1
    36   20   21 ar
    37   20   40 1
    38   21   26 1
    39   21   22 ar
    40   22   23 ar
    41   22   24 1
    42   23   41 1
    43   24   25 1
    44   25   26 1
    45   25   42 1
    46   25   43 1
    47   27   44 1
    48   28   29 1
    49   29   30 1
    50   29   45 1
    51   29   46 1
@<TRIPOS>MOLECULE
ZINC56527888
   39    41     0     0     0
SMALL
USER_CHARGES

@<TRIPOS>ATOM
      1 C1          1.1324   -0.7117   -0.0101 C.ar      1 <0>        -0.0363
      2 C2          2.3527   -0.0590   -0.0188 C.ar      1 <0>        -0.1930
      3 C3          2.3765    1.3307   -0.0095 C.ar      1 <0>         0.3632
      4 N1          1.2495    2.0245    0.0075 N.ar      1 <0>        -0.4633
      5 C4          0.0714    1.4311    0.0161 C.ar      1 <0>         0.1500
      6 C5         -0.0273    0.0524    0.0077 C.ar      1 <0>        -0.1218
      7 Cl1        -1.5840   -0.7159    0.0192 Cl        1 <0>        -0.0530
      8 N2          3.5997    2.0005   -0.0176 N.am      1 <0>        -0.6610
      9 C6          3.6314    3.3446   -0.1116 C.2       1 <0>         0.5129
     10 O1          2.5973    3.9780   -0.0965 O.2       1 <0>        -0.4584
     11 C7          4.9518    4.0603   -0.2355 C.3       1 <0>        -0.1221
     12 H1          5.5667    3.8432    0.6379 H         1 <0>         0.1077
     13 C8          4.7086    5.5685   -0.3268 C.3       1 <0>        -0.1015
     14 C9          6.0504    6.2986   -0.4197 C.3       1 <0>        -0.1357
     15 C10         6.7849    5.8497   -1.6869 C.3       1 <0>         0.1044
     16 N3          6.8945    4.3846   -1.6760 N.am      1 <0>        -0.6184
     17 C11         5.6741    3.5854   -1.5002 C.3       1 <0>         0.1395
     18 C12         8.0922    3.7845   -1.8244 C.2       1 <0>         0.7052
     19 O2          8.1593    2.5732   -1.9055 O.2       1 <0>        -0.5195
     20 N4          9.2154    4.5271   -1.8828 N.am      1 <0>        -0.6222
     21 C13        10.4586    3.9052   -1.9288 C.2       1 <0>         0.2571
     22 N5         10.7450    2.6183   -1.9305 N.2       1 <0>        -0.3042
     23 N6         11.9362    2.1995   -1.9767 N.2       1 <0>        -0.2310
     24 C14        12.9217    3.0731   -2.0245 C.2       1 <0>         0.0077
     25 S1         11.9928    4.6000   -2.0045 S.3       1 <0>         0.0769
     26 H2          1.0829   -1.7905   -0.0214 H         1 <0>         0.1506
     27 H3          3.2743   -0.6220   -0.0323 H         1 <0>         0.1478
     28 H4         -0.8272    2.0299    0.0303 H         1 <0>         0.1693
     29 H5          4.4277    1.4990    0.0443 H         1 <0>         0.4214
     30 H6          4.1140    5.7875   -1.2137 H         1 <0>         0.0783
     31 H7          4.1731    5.9044    0.5611 H         1 <0>         0.0812
     32 H8          5.8774    7.3740   -0.4611 H         1 <0>         0.0886
     33 H9          6.6555    6.0604    0.4552 H         1 <0>         0.0720
     34 H10         6.2244    6.1676   -2.5661 H         1 <0>         0.0836
     35 H11         7.7815    6.2906   -1.7072 H         1 <0>         0.0762
     36 H12         5.9376    2.5328   -1.3971 H         1 <0>         0.1024
     37 H13         5.0233    3.7183   -2.3645 H         1 <0>         0.0807
     38 H14         9.1567    5.4953   -1.8927 H         1 <0>         0.4239
     39 H15        13.9888    2.9119   -2.0670 H         1 <0>         0.2408
@<TRIPOS>BOND
     1    1    6 ar
     2    1    2 ar
     3    1   26 1
     4    2    3 ar
     5    2   27 1
     6    3    4 ar
     7    3    8 1
     8    4    5 ar
     9    5    6 ar
    10    5   28 1
    11    6    7 1
    12    8    9 am
    13    8   29 1
    14    9   10 2
    15    9   11 1
    16   11   12 1
    17   11   17 1
    18   11   13 1
    19   13   14 1
    20   13   30 1
    21   13   31 1
    22   14   15 1
    23   14   32 1
    24   14   33 1
    25   15   16 1
    26   15   34 1
    27   15   35 1
    28   16   17 1
    29   16   18 am
    30   17   36 1
    31   17   37 1
    32   18   19 2
    33   18   20 am
    34   20   21 1
    35   20   38 1
    36   21   25 1
    37   21   22 2
    38   22   23 1
    39   23   24 2
    40   24   25 1
    41   24   39 1
@<TRIPOS>MOLECULE
ZINC63567106
   49    52     0     0     0
SMALL
USER_CHARGES

@<TRIPOS>ATOM
      1 C1          0.1220    1.1536    0.7641 C.ar      1 <0>        -0.1073
      2 C2          1.3094    1.8611    0.7639 C.ar      1 <0>        -0.0769
      3 C3          2.3830    1.4168    0.0100 C.ar      1 <0>         0.0192
      4 C4          2.2660    0.2545   -0.7493 C.ar      1 <0>         0.0534
      5 C5          1.0762   -0.4535   -0.7484 C.ar      1 <0>        -0.1256
      6 C6          0.0024   -0.0046    0.0087 C.ar      1 <0>         0.1699
      7 N1         -1.2017   -0.7212    0.0105 N.am      1 <0>        -0.6748
      8 C7         -2.3746   -0.0676    0.1278 C.2       1 <0>         0.6963
      9 O1         -2.3951    1.1476    0.1347 O.2       1 <0>        -0.5064
     10 N2         -3.5247   -0.7617    0.2374 N.am      1 <0>        -0.6898
     11 C8         -4.6976   -0.1081    0.3547 C.2       1 <0>         0.5168
     12 O2         -4.7180    1.1040    0.3616 O.2       1 <0>        -0.4407
     13 C9         -5.9836   -0.8842    0.4772 C.3       1 <0>         0.0337
     14 N3         -7.1108    0.0509    0.5912 N.3       1 <0>        -0.5161
     15 C10        -7.0485    0.8002    1.8556 C.3       1 <0>         0.0116
     16 C11        -8.2095    1.7956    1.9165 C.3       1 <0>         0.0667
     17 O3         -9.4475    1.0956    1.7573 O.3       1 <0>        -0.3816
     18 C12        -9.5343    0.3655    0.5323 C.3       1 <0>         0.0998
     19 C13        -8.3937   -0.6545    0.4745 C.3       1 <0>         0.0561
     20 C14        -8.4599   -1.4104   -0.8528 C.3       1 <0>        -0.1157
     21 C15        -9.7994   -2.1452   -0.9482 C.3       1 <0>        -0.1202
     22 C16       -10.9466   -1.1364   -0.8723 C.3       1 <0>        -0.1186
     23 C17       -10.8724   -0.3696    0.4506 C.3       1 <0>        -0.1117
     24 O4          3.4490    0.0334   -1.3935 O.3       1 <0>        -0.3072
     25 C18         4.1540    1.2878   -1.3449 C.3       1 <0>         0.2135
     26 O5          3.6403    1.9233   -0.1594 O.3       1 <0>        -0.3070
     27 H1         -0.7123    1.5000    1.3561 H         1 <0>         0.1507
     28 H2          1.4002    2.7621    1.3524 H         1 <0>         0.1422
     29 H3          0.9833   -1.3546   -1.3365 H         1 <0>         0.1405
     30 H4         -1.1912   -1.6875   -0.0726 H         1 <0>         0.4117
     31 H5         -3.5083   -1.7315    0.2319 H         1 <0>         0.4116
     32 H6         -6.1170   -1.5082   -0.4065 H         1 <0>         0.1182
     33 H7         -5.9439   -1.5153    1.3651 H         1 <0>         0.0737
     34 H8         -7.1204    0.1063    2.6930 H         1 <0>         0.0413
     35 H9         -6.1034    1.3404    1.9115 H         1 <0>         0.1034
     36 H10        -8.2013    2.3046    2.8803 H         1 <0>         0.1008
     37 H11        -8.1015    2.5290    1.1175 H         1 <0>         0.0631
     38 H12        -9.4467    1.0544   -0.3079 H         1 <0>         0.0685
     39 H13        -8.4960   -1.3605    1.2986 H         1 <0>         0.0537
     40 H14        -8.3722   -0.7044   -1.6786 H         1 <0>         0.0766
     41 H15        -7.6445   -2.1321   -0.9018 H         1 <0>         0.0666
     42 H16        -9.8515   -2.6831   -1.8947 H         1 <0>         0.0700
     43 H17        -9.8841   -2.8535   -0.1240 H         1 <0>         0.0642
     44 H18       -10.8684   -0.4349   -1.7029 H         1 <0>         0.0670
     45 H19       -11.8984   -1.6642   -0.9326 H         1 <0>         0.0719
     46 H20       -10.9546   -1.0695    1.2821 H         1 <0>         0.0705
     47 H21       -11.6878    0.3521    0.4993 H         1 <0>         0.0759
     48 H22         5.2274    1.1207   -1.2552 H         1 <0>         0.1339
     49 H23         3.9311    1.8869   -2.2277 H         1 <0>         0.0864
@<TRIPOS>BOND
     1    1    6 ar
     2    1    2 ar
     3    1   27 1
     4    2    3 ar
     5    2   28 1
     6    3   26 1
     7    3    4 ar
     8    4    5 ar
     9    4   24 1
    10    5    6 ar
    11    5   29 1
    12    6    7 1
    13    7    8 am
    14    7   30 1
    15    8    9 2
    16    8   10 am
    17   10   11 am
    18   10   31 1
    19   11   12 2
    20   11   13 1
    21   13   14 1
    22   13   32 1
    23   13   33 1
    24   14   19 1
    25   14   15 1
    26   15   16 1
    27   15   34 1
    28   15   35 1
    29   16   17 1
    30   16   36 1
    31   16   37 1
    32   17   18 1
    33   18   23 1
    34   18   19 1
    35   18   38 1
    36   19   20 1
    37   19   39 1
    38   20   21 1
    39   20   40 1
    40   20   41 1
    41   21   22 1
    42   21   42 1
    43   21   43 1
    44   22   23 1
    45   22   44 1
    46   22   45 1
    47   23   46 1
    48   23   47 1
    49   24   25 1
    50   25   26 1
    51   25   48 1
    52   25   49 1
@<TRIPOS>MOLECULE
ZINC67133353
   44    47     0     0     0
SMALL
USER_CHARGES

@<TRIPOS>ATOM
      1 C1         -0.3533    1.4763    0.0491 C.3       1 <0>        -0.0989
      2 C2         -0.1416   -0.0155    0.0187 C.2       1 <0>         0.1361
      3 C3         -0.1693   -0.8199   -1.0853 C.2       1 <0>        -0.1032
      4 N1          0.0651   -2.0850   -0.6963 N.2       1 <0>        -0.2028
      5 N2          0.2369   -2.1195    0.5792 N.2       1 <0>        -0.0147
      6 N3          0.1178   -0.8141    1.0770 N.pl3     1 <0>        -0.3033
      7 C4          0.2411   -0.4155    2.4135 C.ar      1 <0>         0.1406
      8 C5          1.0211    0.6702    2.7445 C.ar      1 <0>        -0.0806
      9 C6          1.1523    1.0771    4.0689 C.ar      1 <0>        -0.1089
     10 C7          0.5137    0.4135    5.0723 C.ar      1 <0>        -0.0717
     11 C8         -0.2909   -0.6979    4.7750 C.ar      1 <0>        -0.0957
     12 C9         -0.4377   -1.1198    3.4308 C.ar      1 <0>         0.1406
     13 N4         -1.2058   -2.1742    3.1441 N.ar      1 <0>        -0.4626
     14 C10        -1.8385   -2.8327    4.0848 C.ar      1 <0>         0.1454
     15 C11        -1.7427   -2.4676    5.4259 C.ar      1 <0>        -0.1670
     16 C12        -0.9640   -1.4059    5.7891 C.ar      1 <0>        -0.0520
     17 C13        -0.4156   -0.3754   -2.4701 C.2       1 <0>         0.6150
     18 O1         -0.6175    0.8006   -2.7043 O.2       1 <0>        -0.5345
     19 N5         -0.4168   -1.2726   -3.4758 N.am      1 <0>        -0.5060
     20 N6         -0.6508   -0.8504   -4.7910 N.am      1 <0>        -0.5168
     21 C14        -0.6520   -1.7477   -5.7967 C.2       1 <0>         0.5620
     22 O2         -0.4502   -2.9232   -5.5626 O.2       1 <0>        -0.5281
     23 C15        -0.8989   -1.3021   -7.1846 C.ar      1 <0>        -0.1297
     24 C16        -1.1253    0.0479   -7.4576 C.ar      1 <0>        -0.0855
     25 C17        -1.3545    0.4571   -8.7549 C.ar      1 <0>        -0.1250
     26 C18        -1.3608   -0.4674   -9.7843 C.ar      1 <0>        -0.0883
     27 C19        -1.1376   -1.8071   -9.5205 C.ar      1 <0>        -0.1258
     28 C20        -0.9009   -2.2287   -8.2284 C.ar      1 <0>        -0.0538
     29 H1          0.5862    1.9812   -0.1759 H         1 <0>         0.0982
     30 H2         -1.1012    1.7524   -0.6942 H         1 <0>         0.1120
     31 H3         -0.6978    1.7742    1.0393 H         1 <0>         0.0784
     32 H4          1.5378    1.2124    1.9664 H         1 <0>         0.1427
     33 H5          1.7698    1.9313    4.3044 H         1 <0>         0.1454
     34 H6          0.6264    0.7416    6.0951 H         1 <0>         0.1429
     35 H7         -2.4503   -3.6802    3.8129 H         1 <0>         0.1653
     36 H8         -2.2763   -3.0291    6.1785 H         1 <0>         0.1448
     37 H9         -0.8775   -1.1095    6.8240 H         1 <0>         0.1474
     38 H10        -0.2558   -2.2108   -3.2890 H         1 <0>         0.4420
     39 H11        -0.8118    0.0877   -4.9778 H         1 <0>         0.4322
     40 H12        -1.1213    0.7704   -6.6549 H         1 <0>         0.1275
     41 H13        -1.5298    1.5014   -8.9675 H         1 <0>         0.1326
     42 H14        -1.5411   -0.1419  -10.7982 H         1 <0>         0.1304
     43 H15        -1.1441   -2.5238  -10.3284 H         1 <0>         0.1336
     44 H16        -0.7219   -3.2741   -8.0244 H         1 <0>         0.1395
@<TRIPOS>BOND
     1    1    2 1
     2    1   29 1
     3    1   30 1
     4    1   31 1
     5    2    6 1
     6    2    3 2
     7    3    4 1
     8    3   17 1
     9    4    5 2
    10    5    6 1
    11    6    7 1
    12    7   12 ar
    13    7    8 ar
    14    8    9 ar
    15    8   32 1
    16    9   10 ar
    17    9   33 1
    18   10   11 ar
    19   10   34 1
    20   11   16 ar
    21   11   12 ar
    22   12   13 ar
    23   13   14 ar
    24   14   15 ar
    25   14   35 1
    26   15   16 ar
    27   15   36 1
    28   16   37 1
    29   17   18 2
    30   17   19 am
    31   19   20 1
    32   19   38 1
    33   20   21 am
    34   20   39 1
    35   21   22 2
    36   21   23 1
    37   23   28 ar
    38   23   24 ar
    39   24   25 ar
    40   24   40 1
    41   25   26 ar
    42   25   41 1
    43   26   27 ar
    44   26   42 1
    45   27   28 ar
    46   27   43 1
    47   28   44 1
@<TRIPOS>MOLECULE
ZINC08301908
   54    57     0     0     0
SMALL
USER_CHARGES
N-[8-(2,4-dimethylphenoxy)-3-(2-furyl)-10-hydroxy-2,4,7-trioxabicyclo[4.4.0]dec-9-yl]acetamide
@<TRIPOS>ATOM
      1 C1         -6.0881   -1.4003   -4.2123 C.3       1 <0>        -0.1111
      2 C2         -5.1834   -1.6710   -3.0379 C.ar      1 <0>        -0.1149
      3 C3         -3.8608   -1.2693   -3.0784 C.ar      1 <0>        -0.0907
      4 C4         -3.0296   -1.5158   -2.0031 C.ar      1 <0>        -0.1858
      5 C5         -3.5227   -2.1675   -0.8818 C.ar      1 <0>         0.1158
      6 C6         -4.8482   -2.5749   -0.8461 C.ar      1 <0>        -0.1015
      7 C7         -5.6770   -2.3209   -1.9220 C.ar      1 <0>        -0.0881
      8 C8         -5.3854   -3.2884    0.3677 C.3       1 <0>        -0.1094
      9 O1         -2.7070   -2.4112    0.1775 O.3       1 <0>        -0.2628
     10 C9         -1.3526   -1.9687    0.0686 C.3       1 <0>         0.2440
     11 H1         -0.9358   -2.3096   -0.8791 H         1 <0>         0.0764
     12 C10        -0.5356   -2.5536    1.2220 C.3       1 <0>         0.1004
     13 H2         -0.5162   -3.6402    1.1382 H         1 <0>         0.1196
     14 C11         0.8981   -2.0117    1.1663 C.3       1 <0>         0.1138
     15 H3          1.3794   -2.3427    0.2460 H         1 <0>         0.0881
     16 C12         0.8391   -0.4844    1.1946 C.3       1 <0>         0.0627
     17 H4          0.3713   -0.1559    2.1227 H         1 <0>         0.0818
     18 C13         0.0021   -0.0041    0.0020 C.3       1 <0>         0.0352
     19 H5          0.4569   -0.3558   -0.9240 H         1 <0>         0.0877
     20 O2         -1.3147   -0.5387    0.1171 O.3       1 <0>        -0.3728
     21 C14        -0.0187    1.5251    0.0104 C.3       1 <0>         0.0733
     22 O3          1.3354    1.9942    0.0000 O.3       1 <0>        -0.3717
     23 C15         2.1336    1.5160    1.0838 C.3       1 <0>         0.3330
     24 H6          1.7209    1.8799    2.0247 H         1 <0>         0.0929
     25 O4          2.1444    0.0840    1.0922 O.3       1 <0>        -0.3555
     26 C16         3.5431    2.0255    0.9259 C.2       1 <0>        -0.0186
     27 C17         3.9113    3.3183    0.8769 C.2       1 <0>        -0.1680
     28 C18         5.3166    3.3383    0.7228 C.2       1 <0>        -0.2183
     29 C19         5.7230    2.0565    0.6868 C.2       1 <0>        -0.0235
     30 O5          4.6451    1.2658    0.8161 O.3       1 <0>        -0.1552
     31 O6          1.6362   -2.4890    2.2929 O.3       1 <0>        -0.5370
     32 N1         -1.1503   -2.1738    2.4965 N.am      1 <0>        -0.7140
     33 C20        -2.1568   -2.9115    3.0055 C.2       1 <0>         0.5176
     34 O7         -2.5538   -3.8897    2.4085 O.2       1 <0>        -0.5259
     35 C21        -2.7891   -2.5209    4.3165 C.3       1 <0>        -0.1697
     36 H7         -6.0440   -2.2399   -4.9060 H         1 <0>         0.0686
     37 H8         -7.1119   -1.2730   -3.8605 H         1 <0>         0.0654
     38 H9         -5.7628   -0.4922   -4.7198 H         1 <0>         0.0648
     39 H10        -3.4774   -0.7621   -3.9515 H         1 <0>         0.1234
     40 H11        -1.9968   -1.2019   -2.0353 H         1 <0>         0.1243
     41 H12        -6.7102   -2.6339   -1.8929 H         1 <0>         0.1285
     42 H13        -5.7812   -2.5578    1.0731 H         1 <0>         0.0644
     43 H14        -6.1806   -3.9701    0.0661 H         1 <0>         0.0627
     44 H15        -4.5829   -3.8534    0.8419 H         1 <0>         0.0815
     45 H16        -0.5407    1.8902   -0.8740 H         1 <0>         0.1222
     46 H17        -0.5237    1.8806    0.9086 H         1 <0>         0.0751
     47 H18         3.2587    4.1763    0.9421 H         1 <0>         0.1541
     48 H19         5.9434    4.2146    0.6479 H         1 <0>         0.1545
     49 H20         6.7434    1.7203    0.5767 H         1 <0>         0.2083
     50 H21         1.6988   -3.4527    2.3425 H         1 <0>         0.3875
     51 H22        -0.8328   -1.3915    2.9740 H         1 <0>         0.4020
     52 H23        -2.3042   -1.6234    4.7005 H         1 <0>         0.0732
     53 H24        -3.8501   -2.3235    4.1636 H         1 <0>         0.0957
     54 H25        -2.6702   -3.3332    5.0335 H         1 <0>         0.0954
@<TRIPOS>BOND
     1    1    2 1
     2    1   36 1
     3    1   37 1
     4    1   38 1
     5    2    7 ar
     6    2    3 ar
     7    3    4 ar
     8    3   39 1
     9    4    5 ar
    10    4   40 1
    11    5    6 ar
    12    5    9 1
    13    6    7 ar
    14    6    8 1
    15    7   41 1
    16    8   42 1
    17    8   43 1
    18    8   44 1
    19    9   10 1
    20   10   11 1
    21   10   20 1
    22   10   12 1
    23   12   13 1
    24   12   14 1
    25   12   32 1
    26   14   15 1
    27   14   16 1
    28   14   31 1
    29   16   17 1
    30   16   25 1
    31   16   18 1
    32   18   19 1
    33   18   20 1
    34   18   21 1
    35   21   22 1
    36   21   45 1
    37   21   46 1
    38   22   23 1
    39   23   24 1
    40   23   25 1
    41   23   26 1
    42   26   30 1
    43   26   27 2
    44   27   28 1
    45   27   47 1
    46   28   29 2
    47   28   48 1
    48   29   30 1
    49   29   49 1
    50   31   50 1
    51   32   33 am
    52   32   51 1
    53   33   34 2
    54   33   35 1
    55   35   52 1
    56   35   53 1
    57   35   54 1
@<TRIPOS>MOLECULE
ZINC24556735
   50    53     0     0     0
SMALL
USER_CHARGES
(3S)-1-(1,3-benzodioxol-5-yl)-N'-(2,4-dimethylbenzoyl)-5-oxo-pyrrolidine-3-carbohydrazide
@<TRIPOS>ATOM
      1 C1         -1.6405   -7.5020   11.1926 C.3       1 <0>        -0.1251
      2 C2         -2.0661   -7.4562    9.7477 C.ar      1 <0>        -0.0475
      3 C3         -1.1418   -7.1419    8.7670 C.ar      1 <0>        -0.1343
      4 C4         -1.5235   -7.1039    7.4420 C.ar      1 <0>        -0.0757
      5 C5         -2.8480   -7.3729    7.0925 C.ar      1 <0>        -0.1437
      6 C6         -3.7751   -7.6892    8.0864 C.ar      1 <0>        -0.0122
      7 C7         -3.3790   -7.7289    9.4075 C.ar      1 <0>        -0.1322
      8 C8         -5.2056   -7.9870    7.7176 C.3       1 <0>        -0.1121
      9 C9         -3.2653   -7.3289    5.6748 C.2       1 <0>         0.5650
     10 O1         -4.4287   -7.5175    5.3776 O.2       1 <0>        -0.5366
     11 N1         -2.3557   -7.0797    4.7120 N.am      1 <0>        -0.5326
     12 N2         -2.7511   -7.0380    3.3686 N.am      1 <0>        -0.5280
     13 C10        -1.8415   -6.7889    2.4058 C.2       1 <0>         0.5115
     14 O2         -0.6807   -6.6007    2.7023 O.2       1 <0>        -0.5347
     15 C11        -2.2669   -6.7440    0.9608 C.3       1 <0>        -0.1153
     16 H1         -2.6368   -7.7611    0.7643 H         1 <0>         0.1414
     17 C12        -3.3018   -5.6199    0.7232 C.3       1 <0>        -0.1455
     18 C13        -2.4681   -4.4330    0.2934 C.2       1 <0>         0.5226
     19 O3         -2.8527   -3.2827    0.2787 O.2       1 <0>        -0.4985
     20 N3         -1.2392   -4.8385   -0.0703 N.am      1 <0>        -0.5479
     21 C14        -1.1015   -6.2948    0.0486 C.3       1 <0>         0.1078
     22 C15        -0.2224   -3.9818   -0.5117 C.ar      1 <0>         0.1788
     23 C16        -0.4876   -2.6332   -0.7085 C.ar      1 <0>        -0.1452
     24 C17         0.5144   -1.7868   -1.1429 C.ar      1 <0>        -0.0690
     25 C18         1.7863   -2.2810   -1.3835 C.ar      1 <0>         0.0072
     26 C19         2.0553   -3.6334   -1.1870 C.ar      1 <0>         0.0618
     27 C20         1.0502   -4.4810   -0.7519 C.ar      1 <0>        -0.1363
     28 O4          3.3661   -3.8660   -1.4894 O.3       1 <0>        -0.3087
     29 C21         3.7904   -2.7278   -2.2623 C.3       1 <0>         0.2095
     30 O5          2.9295   -1.6664   -1.8090 O.3       1 <0>        -0.3036
     31 H2         -0.5702   -7.2593   11.2674 H         1 <0>         0.0700
     32 H3         -1.8169   -8.5105   11.5950 H         1 <0>         0.0763
     33 H4         -2.2238   -6.7696   11.7700 H         1 <0>         0.0763
     34 H5         -0.1185   -6.9297    9.0392 H         1 <0>         0.1311
     35 H6         -0.8003   -6.8625    6.6771 H         1 <0>         0.1250
     36 H7         -4.0954   -7.9739   10.1777 H         1 <0>         0.1321
     37 H8         -5.7797   -8.2124    8.6284 H         1 <0>         0.0595
     38 H9         -5.2369   -8.8534    7.0406 H         1 <0>         0.0805
     39 H10        -5.6442   -7.1126    7.2147 H         1 <0>         0.0834
     40 H11        -1.3028   -6.9090    4.9810 H         1 <0>         0.4554
     41 H12        -3.8040   -7.2086    3.0996 H         1 <0>         0.4593
     42 H13        -4.0094   -5.9323   -0.0589 H         1 <0>         0.1320
     43 H14        -3.8501   -5.4231    1.6563 H         1 <0>         0.1147
     44 H15        -0.1440   -6.5721    0.5137 H         1 <0>         0.1110
     45 H16        -1.1905   -6.7890   -0.9301 H         1 <0>         0.1010
     46 H17        -1.4780   -2.2452   -0.5214 H         1 <0>         0.1688
     47 H18         0.3058   -0.7382   -1.2957 H         1 <0>         0.1420
     48 H19         1.2567   -5.5301   -0.5993 H         1 <0>         0.1400
     49 H20         4.8510   -2.5202   -2.0574 H         1 <0>         0.1343
     50 H21         3.6590   -2.9422   -3.3332 H         1 <0>         0.0863
@<TRIPOS>BOND
     1    1    2 1
     2    1   31 1
     3    1   32 1
     4    1   33 1
     5    2    7 ar
     6    2    3 ar
     7    3    4 ar
     8    3   34 1
     9    4    5 ar
    10    4   35 1
    11    5    6 ar
    12    5    9 1
    13    6    7 ar
    14    6    8 1
    15    7   36 1
    16    8   37 1
    17    8   38 1
    18    8   39 1
    19    9   10 2
    20    9   11 am
    21   11   12 1
    22   11   40 1
    23   12   13 am
    24   12   41 1
    25   13   14 2
    26   13   15 1
    27   15   16 1
    28   15   21 1
    29   15   17 1
    30   17   18 1
    31   17   42 1
    32   17   43 1
    33   18   19 2
    34   18   20 am
    35   20   21 1
    36   20   22 1
    37   21   44 1
    38   21   45 1
    39   22   27 ar
    40   22   23 ar
    41   23   24 ar
    42   23   46 1
    43   24   25 ar
    44   24   47 1
    45   25   30 1
    46   25   26 ar
    47   26   27 ar
    48   26   28 1
    49   27   48 1
    50   28   29 1
    51   29   30 1
    52   29   49 1
    53   29   50 1
@<TRIPOS>MOLECULE
ZINC04560783
   51    54     0     0     0
SMALL
USER_CHARGES

@<TRIPOS>ATOM
      1 C1         -0.0184    1.5028    0.0103 C.3       1 <0>        -0.1091
      2 C2          0.0021   -0.0041    0.0020 C.ar      1 <0>        -0.1063
      3 C3          0.0057   -0.6889   -1.1980 C.ar      1 <0>        -0.0876
      4 C4          0.0240   -2.0712   -1.2062 C.ar      1 <0>        -0.1487
      5 C5          0.0391   -2.7720   -0.0142 C.ar      1 <0>        -0.0904
      6 C6          0.0359   -2.0920    1.1881 C.ar      1 <0>        -0.1908
      7 C7          0.0230   -0.7046    1.1991 C.ar      1 <0>         0.1198
      8 O1          0.0255   -0.0332    2.3806 O.3       1 <0>        -0.2637
      9 C8          0.0475   -0.8196    3.5736 C.3       1 <0>         0.2476
     10 H1         -0.7307   -1.5809    3.5194 H         1 <0>         0.0705
     11 C9         -0.2088    0.0833    4.7815 C.3       1 <0>         0.0983
     12 H2          0.5286    0.8858    4.7975 H         1 <0>         0.1212
     13 C10        -0.0980   -0.7375    6.0725 C.3       1 <0>         0.1176
     14 H3         -0.8735   -1.5033    6.0875 H         1 <0>         0.0788
     15 C11         1.2792   -1.4000    6.1077 C.3       1 <0>         0.0644
     16 H4          2.0523   -0.6315    6.1088 H         1 <0>         0.0899
     17 C12         1.4326   -2.2782    4.8593 C.3       1 <0>         0.0348
     18 H5          0.6431   -3.0296    4.8450 H         1 <0>         0.0877
     19 O2          1.3244   -1.4538    3.7010 O.3       1 <0>        -0.3727
     20 C13         2.7943   -2.9716    4.9201 C.3       1 <0>         0.0726
     21 O3          2.8774   -3.6937    6.1552 O.3       1 <0>        -0.3715
     22 C14         2.6917   -2.8903    7.3216 C.3       1 <0>         0.3328
     23 H6          3.4880   -2.1483    7.3799 H         1 <0>         0.0945
     24 O4          1.4255   -2.2238    7.2641 O.3       1 <0>        -0.3563
     25 C15         2.7363   -3.7684    8.5455 C.2       1 <0>        -0.0175
     26 C16         3.7764   -4.5297    8.9300 C.2       1 <0>        -0.1682
     27 C17         3.3881   -5.1815   10.1230 C.2       1 <0>        -0.2179
     28 C18         2.1338   -4.7794   10.3962 C.2       1 <0>        -0.0242
     29 O5          1.7463   -3.9192    9.4404 O.3       1 <0>        -0.1554
     30 O6         -0.2507    0.1229    7.2032 O.3       1 <0>        -0.5352
     31 N1         -1.5528    0.6580    4.6841 N.am      1 <0>        -0.7314
     32 C19        -1.7555    1.7799    3.9651 C.2       1 <0>         0.5137
     33 O7         -0.8252    2.3135    3.3988 O.2       1 <0>        -0.5103
     34 C20        -3.1380    2.3711    3.8649 C.3       1 <0>        -0.1740
     35 H7          1.0042    1.8801    0.0026 H         1 <0>         0.0678
     36 H8         -0.5455    1.8639   -0.8728 H         1 <0>         0.0625
     37 H9         -0.5286    1.8543    0.9071 H         1 <0>         0.0784
     38 H10        -0.0060   -0.1439   -2.1303 H         1 <0>         0.1294
     39 H11         0.0261   -2.6047   -2.1453 H         1 <0>         0.1243
     40 H12         0.0529   -3.8519   -0.0233 H         1 <0>         0.1240
     41 H13         0.0477   -2.6398    2.1188 H         1 <0>         0.1235
     42 H14         2.8922   -3.6630    4.0831 H         1 <0>         0.1230
     43 H15         3.5884   -2.2262    4.8762 H         1 <0>         0.0773
     44 H16         4.7258   -4.6253    8.4241 H         1 <0>         0.1544
     45 H17         3.9840   -5.8702   10.7035 H         1 <0>         0.1545
     46 H18         1.5406   -5.0923   11.2427 H         1 <0>         0.2082
     47 H19        -1.0991    0.5860    7.2333 H         1 <0>         0.3831
     48 H20        -2.2969    0.2312    5.1371 H         1 <0>         0.4023
     49 H21        -3.4961    2.6289    4.8617 H         1 <0>         0.0897
     50 H22        -3.1055    3.2686    3.2472 H         1 <0>         0.0959
     51 H23        -3.8125    1.6435    3.4135 H         1 <0>         0.0886
@<TRIPOS>BOND
     1    1    2 1
     2    1   35 1
     3    1   36 1
     4    1   37 1
     5    2    7 ar
     6    2    3 ar
     7    3    4 ar
     8    3   38 1
     9    4    5 ar
    10    4   39 1
    11    5    6 ar
    12    5   40 1
    13    6    7 ar
    14    6   41 1
    15    7    8 1
    16    8    9 1
    17    9   10 1
    18    9   19 1
    19    9   11 1
    20   11   12 1
    21   11   13 1
    22   11   31 1
    23   13   14 1
    24   13   15 1
    25   13   30 1
    26   15   16 1
    27   15   24 1
    28   15   17 1
    29   17   18 1
    30   17   19 1
    31   17   20 1
    32   20   21 1
    33   20   42 1
    34   20   43 1
    35   21   22 1
    36   22   23 1
    37   22   24 1
    38   22   25 1
    39   25   29 1
    40   25   26 2
    41   26   27 1
    42   26   44 1
    43   27   28 2
    44   27   45 1
    45   28   29 1
    46   28   46 1
    47   30   47 1
    48   31   32 am
    49   31   48 1
    50   32   33 2
    51   32   34 1
    52   34   49 1
    53   34   50 1
    54   34   51 1
@<TRIPOS>MOLECULE
ZINC22642851
   47    50     0     0     0
SMALL
USER_CHARGES

@<TRIPOS>ATOM
      1 C1         -1.0662   -2.2771   -1.3397 C.3       1 <0>        -0.1809
      2 C2         -0.3556   -1.2949   -0.4445 C.2       1 <0>         0.5224
      3 O1          0.8417   -1.3863   -0.2737 O.2       1 <0>        -0.5213
      4 N1         -1.0506   -0.3149    0.1664 N.am      1 <0>        -0.5539
      5 C3         -0.4719    0.6990    1.0519 C.3       1 <0>         0.1053
      6 C4         -1.6560    1.5767    1.4886 C.3       1 <0>        -0.0874
      7 C5         -2.8555    0.9725    0.7936 C.ar      1 <0>        -0.1126
      8 C6         -2.4305   -0.1127    0.0432 C.ar      1 <0>         0.1342
      9 C7         -3.3667   -0.8352   -0.6988 C.ar      1 <0>        -0.1420
     10 C8         -4.6956   -0.4707   -0.6881 C.ar      1 <0>        -0.1062
     11 C9         -5.1135    0.6201    0.0624 C.ar      1 <0>         0.1213
     12 C10        -4.1876    1.3359    0.8096 C.ar      1 <0>        -0.0721
     13 N2         -6.4642    0.9910    0.0730 N.am      1 <0>        -0.6643
     14 C11        -6.8055    2.2900    0.1856 C.2       1 <0>         0.5109
     15 O2         -5.9456    3.1455    0.1814 O.2       1 <0>        -0.5159
     16 C12        -8.2553    2.6796    0.3166 C.3       1 <0>         0.1023
     17 N3         -8.3617    4.1368    0.4229 N.am      1 <0>        -0.7160
     18 C13        -9.5718    4.7167    0.5495 C.2       1 <0>         0.5713
     19 O3        -10.5751    4.0304    0.5755 O.2       1 <0>        -0.5296
     20 C14        -9.6790    6.1850    0.6567 C.ar      1 <0>        -0.1307
     21 C15        -8.5277    6.9756    0.6212 C.ar      1 <0>        -0.0693
     22 C16        -8.6297    8.3459    0.7203 C.ar      1 <0>        -0.1080
     23 C17        -9.8745    8.9461    0.8561 C.ar      1 <0>         0.0644
     24 C18       -11.0282    8.1619    0.8928 C.ar      1 <0>         0.0238
     25 C19       -10.9325    6.7880    0.7880 C.ar      1 <0>        -0.0388
     26 O4        -12.1094    8.9844    1.0306 O.3       1 <0>        -0.3036
     27 C20       -11.5787   10.2422    1.4880 C.3       1 <0>         0.2119
     28 O5        -10.2354   10.2561    0.9702 O.3       1 <0>        -0.3037
     29 H1         -0.3459   -2.9900   -1.7409 H         1 <0>         0.0991
     30 H2         -1.8237   -2.8102   -0.7652 H         1 <0>         0.0977
     31 H3         -1.5430   -1.7414   -2.1606 H         1 <0>         0.0975
     32 H4         -0.0123    0.2253    1.9194 H         1 <0>         0.0852
     33 H5          0.2631    1.2966    0.5128 H         1 <0>         0.0848
     34 H6         -1.7821    1.5340    2.5705 H         1 <0>         0.0946
     35 H7         -1.5065    2.6061    1.1629 H         1 <0>         0.0956
     36 H8         -3.0475   -1.6844   -1.2847 H         1 <0>         0.1443
     37 H9         -5.4136   -1.0347   -1.2651 H         1 <0>         0.1363
     38 H10        -4.5077    2.1857    1.3942 H         1 <0>         0.1397
     39 H11        -7.1540    0.3130   -0.0006 H         1 <0>         0.4168
     40 H12        -8.8040    2.3383   -0.5612 H         1 <0>         0.1074
     41 H13        -8.6761    2.2184    1.2101 H         1 <0>         0.1087
     42 H14        -7.5613    4.6844    0.4022 H         1 <0>         0.4130
     43 H15        -7.5577    6.5126    0.5158 H         1 <0>         0.1444
     44 H16        -7.7386    8.9553    0.6927 H         1 <0>         0.1457
     45 H17       -11.8250    6.1803    0.8113 H         1 <0>         0.1512
     46 H18       -12.1551   11.0722    1.0795 H         1 <0>         0.1369
     47 H19       -11.5696   10.2805    2.5773 H         1 <0>         0.0897
@<TRIPOS>BOND
     1    1    2 1
     2    1   29 1
     3    1   30 1
     4    1   31 1
     5    2    3 2
     6    2    4 am
     7    4    8 1
     8    4    5 1
     9    5    6 1
    10    5   32 1
    11    5   33 1
    12    6    7 1
    13    6   34 1
    14    6   35 1
    15    7   12 ar
    16    7    8 ar
    17    8    9 ar
    18    9   10 ar
    19    9   36 1
    20   10   11 ar
    21   10   37 1
    22   11   12 ar
    23   11   13 1
    24   12   38 1
    25   13   14 am
    26   13   39 1
    27   14   15 2
    28   14   16 1
    29   16   17 1
    30   16   40 1
    31   16   41 1
    32   17   18 am
    33   17   42 1
    34   18   19 2
    35   18   20 1
    36   20   25 ar
    37   20   21 ar
    38   21   22 ar
    39   21   43 1
    40   22   23 ar
    41   22   44 1
    42   23   28 1
    43   23   24 ar
    44   24   25 ar
    45   24   26 1
    46   25   45 1
    47   26   27 1
    48   27   28 1
    49   27   46 1
    50   27   47 1
@<TRIPOS>MOLECULE
ZINC66770989
   44    47     0     0     0
SMALL
USER_CHARGES

@<TRIPOS>ATOM
      1 C1         -0.0167    1.3777    0.0096 C.ar      1 <0>        -0.1100
      2 C2          1.1697    2.0876    0.0021 C.ar      1 <0>        -0.1026
      3 C3          2.3783    1.4178   -0.0143 C.ar      1 <0>        -0.0822
      4 C4          2.4042    0.0310   -0.0230 C.ar      1 <0>         0.0617
      5 C5          1.2117   -0.6826   -0.0129 C.ar      1 <0>         0.0537
      6 C6          0.0021   -0.0041    0.0020 C.ar      1 <0>        -0.1125
      7 O1          1.2145   -2.0436   -0.0133 O.3       1 <0>        -0.3064
      8 C7          2.4336   -2.6847   -0.4041 C.3       1 <0>         0.0205
      9 C8          3.5941   -1.9974    0.3280 C.3       1 <0>         0.0201
     10 O2          3.6022   -0.6147   -0.0433 O.3       1 <0>        -0.3046
     11 C9          3.6695    2.1948   -0.0233 C.3       1 <0>         0.1891
     12 H1          4.4224    1.6692    0.5640 H         1 <0>         0.0960
     13 C10         4.1652    2.3721   -1.4740 C.3       1 <0>        -0.1194
     14 C11         4.7357    3.8150   -1.4724 C.3       1 <0>        -0.1314
     15 C12         3.7567    4.5354   -0.5120 C.3       1 <0>         0.0897
     16 N1          3.4489    3.5376    0.5332 N.am      1 <0>        -0.6038
     17 C13         3.0338    3.8102    1.7861 C.2       1 <0>         0.6102
     18 O3          2.8083    2.9015    2.5636 O.2       1 <0>        -0.4936
     19 C14         2.8540    5.2018    2.2126 C.2       1 <0>        -0.0117
     20 C15         2.4462    5.6160    3.4482 C.2       1 <0>        -0.1425
     21 C16         2.4143    7.0188    3.4133 C.2       1 <0>        -0.0874
     22 C17         2.7992    7.3947    2.1737 C.2       1 <0>        -0.5641
     23 O4          3.0681    6.2972    1.4547 O.3       1 <0>        -0.1033
     24 S1          2.9309    9.0553    1.5996 S.o2      1 <0>         2.7334
     25 O5          2.8066    9.0070    0.1849 O.2       1 <0>        -0.9402
     26 O6          2.0673    9.8363    2.4140 O.2       1 <0>        -0.9311
     27 N2          4.4736    9.5639    1.9220 N.pl3     1 <0>        -1.2419
     28 H2         -0.9596    1.9040    0.0259 H         1 <0>         0.1327
     29 H3          1.1518    3.1674    0.0087 H         1 <0>         0.1229
     30 H4         -0.9261   -0.5562    0.0079 H         1 <0>         0.1355
     31 H5          2.3988   -3.7390   -0.1298 H         1 <0>         0.1229
     32 H6          2.5703   -2.5889   -1.4813 H         1 <0>         0.0784
     33 H7          3.4543   -2.0880    1.4052 H         1 <0>         0.0783
     34 H8          4.5372   -2.4612    0.0389 H         1 <0>         0.1238
     35 H9          4.9469    1.6486   -1.7056 H         1 <0>         0.0915
     36 H10         3.3374    2.2856   -2.1777 H         1 <0>         0.0826
     37 H11         5.7523    3.8327   -1.0795 H         1 <0>         0.0811
     38 H12         4.6965    4.2518   -2.4703 H         1 <0>         0.0934
     39 H13         4.2335    5.4105   -0.0705 H         1 <0>         0.0886
     40 H14         2.8489    4.8239   -1.0420 H         1 <0>         0.0811
     41 H15         2.1965    4.9862    4.2893 H         1 <0>         0.1752
     42 H16         2.1344    7.6745    4.2246 H         1 <0>         0.1792
     43 H17         4.8973   10.2215    1.3485 H         1 <0>         0.4273
     44 H18         4.9535    9.2041    2.6843 H         1 <0>         0.4200
@<TRIPOS>BOND
     1    1    6 ar
     2    1    2 ar
     3    1   28 1
     4    2    3 ar
     5    2   29 1
     6    3    4 ar
     7    3   11 1
     8    4   10 1
     9    4    5 ar
    10    5    6 ar
    11    5    7 1
    12    6   30 1
    13    7    8 1
    14    8    9 1
    15    8   31 1
    16    8   32 1
    17    9   10 1
    18    9   33 1
    19    9   34 1
    20   11   12 1
    21   11   16 1
    22   11   13 1
    23   13   14 1
    24   13   35 1
    25   13   36 1
    26   14   15 1
    27   14   37 1
    28   14   38 1
    29   15   16 1
    30   15   39 1
    31   15   40 1
    32   16   17 am
    33   17   18 2
    34   17   19 1
    35   19   23 1
    36   19   20 2
    37   20   21 1
    38   20   41 1
    39   21   22 2
    40   21   42 1
    41   22   23 1
    42   22   24 1
    43   24   25 2
    44   24   26 2
    45   24   27 1
    46   27   43 1
    47   27   44 1
@<TRIPOS>MOLECULE
ZINC12621446
   35    37     0     0     0
SMALL
USER_CHARGES
6-(8-quinolylmethylsulfanylmethyl)-1,3,5-triazine-2,4-diamine
@<TRIPOS>ATOM
      1 C1          0.0021   -0.0041    0.0020 C.ar      1 <0>        -0.1160
      2 C2          1.1802   -0.6867   -0.0129 C.ar      1 <0>        -0.0893
      3 C3          2.3924    0.0215   -0.0206 C.ar      1 <0>        -0.1049
      4 C4          3.6315   -0.6463   -0.0365 C.ar      1 <0>        -0.0561
      5 C5          4.7700    0.1080   -0.0453 C.ar      1 <0>        -0.1756
      6 C6          4.6828    1.4986   -0.0365 C.ar      1 <0>         0.1351
      7 N1          3.5273    2.1173   -0.0212 N.ar      1 <0>        -0.4660
      8 C7          2.3756    1.4385   -0.0129 C.ar      1 <0>         0.1404
      9 C8          1.1393    2.1071    0.0025 C.ar      1 <0>        -0.0518
     10 C9         -0.0168    1.3889    0.0097 C.ar      1 <0>        -0.0786
     11 C10         1.0941    3.6134    0.0110 C.3       1 <0>        -0.0417
     12 S1          1.0923    4.2086    1.7246 S.3       1 <0>        -0.2018
     13 C11         1.0365    6.0144    1.5618 C.3       1 <0>        -0.0307
     14 C12         1.0305    6.6423    2.9318 C.ar      1 <0>         0.4506
     15 N2         -0.1172    6.8875    3.5393 N.ar      1 <0>        -0.6252
     16 C13        -0.1265    7.4377    4.7513 C.ar      1 <0>         0.6329
     17 N3          1.0198    7.7498    5.3460 N.ar      1 <0>        -0.6550
     18 C14         2.1715    7.5064    4.7299 C.ar      1 <0>         0.6330
     19 N4          2.1727    6.9513    3.5201 N.ar      1 <0>        -0.6232
     20 N5          3.3648    7.8291    5.3433 N.pl3     1 <0>        -0.8042
     21 N6         -1.3253    7.6886    5.3871 N.pl3     1 <0>        -0.8045
     22 H1         -0.9299   -0.5497    0.0076 H         1 <0>         0.1319
     23 H2          1.1822   -1.7667   -0.0183 H         1 <0>         0.1322
     24 H3          3.6805   -1.7252   -0.0425 H         1 <0>         0.1394
     25 H4          5.7369   -0.3729   -0.0578 H         1 <0>         0.1385
     26 H5          5.5915    2.0822   -0.0428 H         1 <0>         0.1604
     27 H6         -0.9642    1.9074    0.0169 H         1 <0>         0.1344
     28 H7          1.9679    4.0061   -0.5091 H         1 <0>         0.1043
     29 H8          0.1888    3.9526   -0.4924 H         1 <0>         0.0924
     30 H9          1.9114    6.3567    1.0092 H         1 <0>         0.1132
     31 H10         0.1324    6.3032    1.0259 H         1 <0>         0.1120
     32 H11         4.2052    7.6515    4.8927 H         1 <0>         0.4196
     33 H12         3.3631    8.2336    6.2249 H         1 <0>         0.4175
     34 H13        -1.3314    8.0929    6.2687 H         1 <0>         0.4175
     35 H14        -2.1619    7.4605    4.9523 H         1 <0>         0.4194
@<TRIPOS>BOND
     1    1   10 ar
     2    1    2 ar
     3    1   22 1
     4    2    3 ar
     5    2   23 1
     6    3    8 ar
     7    3    4 ar
     8    4    5 ar
     9    4   24 1
    10    5    6 ar
    11    5   25 1
    12    6    7 ar
    13    6   26 1
    14    7    8 ar
    15    8    9 ar
    16    9   10 ar
    17    9   11 1
    18   10   27 1
    19   11   12 1
    20   11   28 1
    21   11   29 1
    22   12   13 1
    23   13   14 1
    24   13   30 1
    25   13   31 1
    26   14   19 ar
    27   14   15 ar
    28   15   16 ar
    29   16   17 ar
    30   16   21 1
    31   17   18 ar
    32   18   19 ar
    33   18   20 1
    34   20   32 1
    35   20   33 1
    36   21   34 1
    37   21   35 1
@<TRIPOS>MOLECULE
ZINC37579721
   36    36     0     0     0
SMALL
USER_CHARGES

@<TRIPOS>ATOM
      1 C1          0.2297    0.4831    0.1722 C.3       1 <0>        -0.1486
      2 C2          0.4270   -0.9046    0.7258 C.ar      1 <0>         0.0308
      3 C3          0.5544   -1.9788   -0.1370 C.ar      1 <0>        -0.1374
      4 C4          0.7356   -3.2515    0.3634 C.ar      1 <0>        -0.0359
      5 C5          0.7904   -3.4543    1.7431 C.ar      1 <0>        -0.0076
      6 C6          0.6613   -2.3669    2.6076 C.ar      1 <0>         0.0059
      7 C7          0.4857   -1.0982    2.0942 C.ar      1 <0>        -0.6813
      8 S1          0.3297    0.2775    3.1841 S.o2      1 <0>         2.6967
      9 O1          0.4131   -0.2395    4.5051 O.2       1 <0>        -0.9506
     10 O2          1.2130    1.2804    2.7013 O.2       1 <0>        -0.9440
     11 N1         -1.2053    0.8726    3.0048 N.pl3     1 <0>        -1.0959
     12 C8         -2.3588    0.0439    3.3640 C.3       1 <0>         0.1331
     13 H1         -2.0119   -0.9208    3.7344 H         1 <0>         0.1170
     14 C9         -3.2373   -0.1697    2.1297 C.3       1 <0>        -0.1640
     15 C10        -3.1595    0.7356    4.4370 C.2       1 <0>         0.5101
     16 O3         -2.8019    1.8145    4.8601 O.2       1 <0>        -0.5255
     17 N2         -4.2731    0.1552    4.9265 N.am      1 <0>        -0.8519
     18 C11         0.9778   -4.7729    2.2692 C.1       1 <0>        -0.1236
     19 C12         1.1315   -5.8540    2.7004 C.1       1 <0>        -0.1476
     20 C13         1.3242   -7.2094    3.2412 C.3       1 <0>         0.1898
     21 O4          1.3453   -7.1541    4.6690 O.3       1 <0>        -0.5663
     22 H2          1.1975    0.9737    0.0681 H         1 <0>         0.1025
     23 H3         -0.2524    0.4199   -0.8034 H         1 <0>         0.0872
     24 H4         -0.3986    1.0593    0.8514 H         1 <0>         0.0699
     25 H5          0.5114   -1.8206   -1.2045 H         1 <0>         0.1412
     26 H6          0.8345   -4.0892   -0.3111 H         1 <0>         0.1373
     27 H7          0.7025   -2.5174    3.6763 H         1 <0>         0.1496
     28 H8         -1.3406    1.7698    2.6620 H         1 <0>         0.4266
     29 H9         -3.5171    0.7971    1.7112 H         1 <0>         0.0742
     30 H10        -2.6844   -0.7418    1.3847 H         1 <0>         0.0768
     31 H11        -4.1364   -0.7164    2.4139 H         1 <0>         0.0769
     32 H12        -4.5591   -0.7077    4.5881 H         1 <0>         0.4026
     33 H13        -4.7886    0.6004    5.6172 H         1 <0>         0.4062
     34 H14         0.5056   -7.8507    2.9145 H         1 <0>         0.0772
     35 H15         2.2694   -7.6140    2.8793 H         1 <0>         0.0773
     36 H16         1.4692   -8.0137    5.0941 H         1 <0>         0.3915
@<TRIPOS>BOND
     1    1    2 1
     2    1   22 1
     3    1   23 1
     4    1   24 1
     5    2    7 ar
     6    2    3 ar
     7    3    4 ar
     8    3   25 1
     9    4    5 ar
    10    4   26 1
    11    5    6 ar
    12    5   18 1
    13    6    7 ar
    14    6   27 1
    15    7    8 1
    16    8    9 2
    17    8   10 2
    18    8   11 1
    19   11   12 1
    20   11   28 1
    21   12   13 1
    22   12   14 1
    23   12   15 1
    24   14   29 1
    25   14   30 1
    26   14   31 1
    27   15   16 2
    28   15   17 am
    29   17   32 1
    30   17   33 1
    31   18   19 3
    32   19   20 1
    33   20   21 1
    34   20   34 1
    35   20   35 1
    36   21   36 1
@<TRIPOS>MOLECULE
ZINC41949126
   37    38     0     0     0
SMALL
USER_CHARGES

@<TRIPOS>ATOM
      1 C1          0.0014    1.4999    0.0207 C.3       1 <0>        -0.1062
      2 C2          0.0111   -0.0070    0.0074 C.2       1 <0>        -0.0868
      3 C3          0.0133   -0.6979   -1.1898 C.2       1 <0>        -0.1627
      4 C4          0.0221   -2.0532   -1.1666 C.2       1 <0>        -0.1545
      5 S1          0.0276   -2.3925    0.5862 S.3       1 <0>         0.0551
      6 C5          0.0235   -0.7051    1.1692 C.2       1 <0>        -0.1935
      7 C6          0.0304   -0.1904    2.5856 C.3       1 <0>         0.2089
      8 N1         -1.3485   -0.0318    3.0543 N.am      1 <0>        -0.6937
      9 C7         -1.5887    0.4192    4.3014 C.2       1 <0>         0.5129
     10 O1         -0.6627    0.6941    5.0361 O.2       1 <0>        -0.5114
     11 C8         -2.9946    0.5809    4.7793 C.2       1 <0>         0.5101
     12 O2         -3.9206    0.3061    4.0445 O.2       1 <0>        -0.4904
     13 N2         -3.2348    1.0320    6.0264 N.am      1 <0>        -0.6440
     14 C9         -4.5426    1.2739    6.4396 C.ar      1 <0>         0.1658
     15 C10        -5.5750    0.4547    5.9922 C.ar      1 <0>        -0.1275
     16 C11        -6.8687    0.6912    6.3988 C.ar      1 <0>        -0.0370
     17 C12        -7.1449    1.7550    7.2621 C.ar      1 <0>        -0.1522
     18 C13        -6.1060    2.5754    7.7099 C.ar      1 <0>        -0.0650
     19 C14        -4.8137    2.3308    7.3036 C.ar      1 <0>        -0.1458
     20 C15        -8.5311    2.0116    7.6996 C.2       1 <0>         0.5642
     21 O3         -9.4340    1.2973    7.3089 O.2       1 <0>        -0.5381
     22 N3         -8.7958    3.0379    8.5322 N.am      1 <0>        -0.8513
     23 H1          1.0267    1.8699    0.0170 H         1 <0>         0.0747
     24 H2         -0.5208    1.8677   -0.8626 H         1 <0>         0.0702
     25 H3         -0.5087    1.8520    0.9173 H         1 <0>         0.0669
     26 H4          0.0078   -0.1659   -2.1296 H         1 <0>         0.1379
     27 H5          0.0247   -2.7476   -1.9938 H         1 <0>         0.1896
     28 H6          0.5530   -0.8997    3.2274 H         1 <0>         0.0917
     29 H7          0.5387    0.7732    2.6195 H         1 <0>         0.0989
     30 H8         -2.0887   -0.2515    2.4671 H         1 <0>         0.4172
     31 H9         -2.4968    1.1882    6.6362 H         1 <0>         0.4265
     32 H10        -5.3609   -0.3672    5.3250 H         1 <0>         0.1477
     33 H11        -7.6695    0.0556    6.0507 H         1 <0>         0.1432
     34 H12        -6.3164    3.3985    8.3768 H         1 <0>         0.1336
     35 H13        -4.0098    2.9620    7.6526 H         1 <0>         0.1374
     36 H14        -8.0755    3.6078    8.8439 H         1 <0>         0.4007
     37 H15        -9.7068    3.2065    8.8197 H         1 <0>         0.4066
@<TRIPOS>BOND
     1    1    2 1
     2    1   23 1
     3    1   24 1
     4    1   25 1
     5    2    6 2
     6    2    3 1
     7    3    4 2
     8    3   26 1
     9    4    5 1
    10    4   27 1
    11    5    6 1
    12    6    7 1
    13    7    8 1
    14    7   28 1
    15    7   29 1
    16    8    9 am
    17    8   30 1
    18    9   10 2
    19    9   11 1
    20   11   12 2
    21   11   13 am
    22   13   14 1
    23   13   31 1
    24   14   19 ar
    25   14   15 ar
    26   15   16 ar
    27   15   32 1
    28   16   17 ar
    29   16   33 1
    30   17   18 ar
    31   17   20 1
    32   18   19 ar
    33   18   34 1
    34   19   35 1
    35   20   21 2
    36   20   22 am
    37   22   36 1
    38   22   37 1
@<TRIPOS>MOLECULE
ZINC49122876
   42    43     0     0     0
SMALL
USER_CHARGES

@<TRIPOS>ATOM
      1 C1         -0.0187    1.5258    0.0104 C.3       1 <0>        -0.1541
      2 C2          0.0021   -0.0041    0.0020 C.3       1 <0>        -0.1201
      3 C3          0.7182   -0.4975   -1.2568 C.3       1 <0>        -0.0914
      4 H1          1.7103   -0.0491   -1.3098 H         1 <0>         0.0862
      5 C4         -0.0892   -0.0968   -2.4931 C.3       1 <0>        -0.1164
      6 C5          0.6269   -0.5903   -3.7519 C.3       1 <0>        -0.1222
      7 C6          0.7579   -2.1137   -3.7000 C.3       1 <0>        -0.1194
      8 C7          1.5654   -2.5144   -2.4637 C.3       1 <0>        -0.1394
      9 C8          0.8493   -2.0210   -1.2049 C.3       1 <0>         0.1593
     10 H2          1.4245   -2.3064   -0.3242 H         1 <0>         0.0857
     11 N1         -0.4841   -2.6237   -1.1337 N.pl3     1 <0>        -1.1046
     12 S1         -0.7229   -4.0036   -0.2500 S.o2      1 <0>         2.6923
     13 O1         -2.1046   -4.3188   -0.3545 O.2       1 <0>        -0.9546
     14 O2          0.2975   -4.9144   -0.6354 O.2       1 <0>        -0.9444
     15 C9         -0.4250   -3.5988    1.4388 C.ar      1 <0>        -0.5840
     16 C10         0.8473   -3.7156    1.9832 C.ar      1 <0>        -0.1451
     17 C11         1.0477   -3.3901    3.3094 C.ar      1 <0>         0.1416
     18 N2          0.0479   -2.9712    4.0621 N.ar      1 <0>        -0.4917
     19 C12        -1.1790   -2.8466    3.5803 C.ar      1 <0>         0.3992
     20 C13        -1.4518   -3.1522    2.2506 C.ar      1 <0>        -0.1343
     21 N3         -2.2025   -2.4016    4.4088 N.pl3     1 <0>        -0.5717
     22 N4         -1.9403   -2.0950    5.7139 N.3       1 <0>        -0.5965
     23 H3          1.0039    1.9031    0.0027 H         1 <0>         0.0547
     24 H4         -0.5459    1.8868   -0.8726 H         1 <0>         0.0579
     25 H5         -0.5289    1.8773    0.9072 H         1 <0>         0.0512
     26 H6          0.5293   -0.3651    0.8851 H         1 <0>         0.0602
     27 H7         -1.0205   -0.3814    0.0098 H         1 <0>         0.0629
     28 H8         -1.0813   -0.5452   -2.4401 H         1 <0>         0.0616
     29 H9         -0.1826    0.9885   -2.5300 H         1 <0>         0.0690
     30 H10         0.0517   -0.3048   -4.6326 H         1 <0>         0.0627
     31 H11         1.6190   -0.1418   -3.8049 H         1 <0>         0.0636
     32 H12        -0.2341   -2.5622   -3.6470 H         1 <0>         0.0630
     33 H13         1.2681   -2.4653   -4.5968 H         1 <0>         0.0645
     34 H14         1.6587   -3.5998   -2.4268 H         1 <0>         0.0805
     35 H15         2.5575   -2.0660   -2.5167 H         1 <0>         0.0756
     36 H16        -1.2271   -2.2144   -1.6042 H         1 <0>         0.4193
     37 H17         1.6715   -4.0579    1.3750 H         1 <0>         0.1498
     38 H18         2.0355   -3.4798    3.7369 H         1 <0>         0.1672
     39 H19        -2.4526   -3.0458    1.8587 H         1 <0>         0.1470
     40 H20        -3.1030   -2.3088    4.0603 H         1 <0>         0.4138
     41 H21        -1.2100   -1.4022    5.7829 H         1 <0>         0.3443
     42 H22        -2.7763   -1.7877    6.1881 H         1 <0>         0.3569
@<TRIPOS>BOND
     1    1    2 1
     2    1   23 1
     3    1   24 1
     4    1   25 1
     5    2    3 1
     6    2   26 1
     7    2   27 1
     8    3    4 1
     9    3    9 1
    10    3    5 1
    11    5    6 1
    12    5   28 1
    13    5   29 1
    14    6    7 1
    15    6   30 1
    16    6   31 1
    17    7    8 1
    18    7   32 1
    19    7   33 1
    20    8    9 1
    21    8   34 1
    22    8   35 1
    23    9   10 1
    24    9   11 1
    25   11   12 1
    26   11   36 1
    27   12   13 2
    28   12   14 2
    29   12   15 1
    30   15   20 ar
    31   15   16 ar
    32   16   17 ar
    33   16   37 1
    34   17   18 ar
    35   17   38 1
    36   18   19 ar
    37   19   20 ar
    38   19   21 1
    39   20   39 1
    40   21   22 1
    41   21   40 1
    42   22   41 1
    43   22   42 1
@<TRIPOS>MOLECULE
ZINC58949216
   37    38     0     0     0
SMALL
USER_CHARGES

@<TRIPOS>ATOM
      1 C1         -0.5480    1.4682    0.0368 C.3       1 <0>        -0.1028
      2 C2         -0.2716   -0.0131    0.0150 C.2       1 <0>        -0.1155
      3 C3         -0.1701   -0.6901   -1.1858 C.2       1 <0>        -0.1496
      4 C4          0.0792   -2.0223   -1.1703 C.2       1 <0>        -0.1736
      5 S1          0.1786   -2.3590    0.5802 S.3       1 <0>         0.0438
      6 C5         -0.1133   -0.7004    1.1726 C.2       1 <0>        -0.1414
      7 C6         -0.1704   -0.1957    2.5914 C.3       1 <0>         0.1486
      8 H1         -0.3703    0.8758    2.5865 H         1 <0>         0.1090
      9 C7          1.1482   -0.4547    3.2670 C.2       1 <0>        -0.2359
     10 C8          1.2921   -1.4516    4.1472 C.2       1 <0>         0.1285
     11 O1          0.2753   -2.2663    4.4722 O.3       1 <0>        -0.2355
     12 C9         -0.9911   -1.8905    4.2204 C.2       1 <0>         0.4315
     13 C10        -1.2720   -0.9060    3.3304 C.2       1 <0>        -0.3713
     14 C11        -2.6081   -0.5460    3.0973 C.2       1 <0>         0.5406
     15 O2         -3.0655    0.4610    3.6076 O.2       1 <0>        -0.4965
     16 O3         -3.3870   -1.3161    2.3071 O.3       1 <0>        -0.3499
     17 C12        -4.7371   -0.8897    2.1134 C.3       1 <0>         0.0286
     18 N1         -2.0181   -2.5158    4.8753 N.pl3     1 <0>        -0.8282
     19 C13         2.6361   -1.6668    4.7941 C.3       1 <0>        -0.1150
     20 C14         2.2935    0.3984    2.9557 C.2       1 <0>         0.5848
     21 O4          2.4041    1.4872    3.4886 O.2       1 <0>        -0.5265
     22 N2          3.2271   -0.0205    2.0786 N.am      1 <0>        -0.8452
     23 H2          0.3951    2.0142    0.0161 H         1 <0>         0.0700
     24 H3         -1.1441    1.7395   -0.8345 H         1 <0>         0.0669
     25 H4         -1.0951    1.7224    0.9447 H         1 <0>         0.0639
     26 H5         -0.2880   -0.1654   -2.1224 H         1 <0>         0.1326
     27 H6          0.1889   -2.7035   -2.0012 H         1 <0>         0.1848
     28 H7         -5.2467   -0.8484    3.0760 H         1 <0>         0.0594
     29 H8         -4.7436    0.0997    1.6561 H         1 <0>         0.0607
     30 H9         -5.2508   -1.5952    1.4603 H         1 <0>         0.1012
     31 H10        -1.8264   -3.1662    5.5689 H         1 <0>         0.4128
     32 H11        -2.9374   -2.3085    4.6455 H         1 <0>         0.4244
     33 H12         2.6842   -1.1054    5.7272 H         1 <0>         0.0964
     34 H13         2.7740   -2.7280    5.0010 H         1 <0>         0.0926
     35 H14         3.4221   -1.3225    4.1219 H         1 <0>         0.0955
     36 H15         3.1390   -0.8882    1.6539 H         1 <0>         0.4041
     37 H16         3.9872    0.5456    1.8720 H         1 <0>         0.4064
@<TRIPOS>BOND
     1    1    2 1
     2    1   23 1
     3    1   24 1
     4    1   25 1
     5    2    6 2
     6    2    3 1
     7    3    4 2
     8    3   26 1
     9    4    5 1
    10    4   27 1
    11    5    6 1
    12    6    7 1
    13    7    8 1
    14    7   13 1
    15    7    9 1
    16    9   10 2
    17    9   20 1
    18   10   11 1
    19   10   19 1
    20   11   12 1
    21   12   13 2
    22   12   18 1
    23   13   14 1
    24   14   15 2
    25   14   16 1
    26   16   17 1
    27   17   28 1
    28   17   29 1
    29   17   30 1
    30   18   31 1
    31   18   32 1
    32   19   33 1
    33   19   34 1
    34   19   35 1
    35   20   21 2
    36   20   22 am
    37   22   36 1
    38   22   37 1
@<TRIPOS>MOLECULE
ZINC13255828
   44    45     0     0     0
SMALL
USER_CHARGES
1-[2-[(4-acetamidophenyl)amino]-2-oxo-ethyl]cyclohexane-1-carboxylic acid
@<TRIPOS>ATOM
      1 C1          1.8004   -0.7251   -0.9657 C.3       1 <0>        -0.1724
      2 C2          0.4640   -0.0435   -0.8230 C.2       1 <0>         0.5069
      3 O1         -0.3948   -0.2105   -1.6631 O.2       1 <0>        -0.5296
      4 N1          0.2230    0.7517    0.2382 N.am      1 <0>        -0.6710
      5 C3         -0.9852    1.4550    0.3263 C.ar      1 <0>         0.1097
      6 C4         -1.0122    2.7198    0.8991 C.ar      1 <0>        -0.1212
      7 C5         -2.2019    3.4152    0.9808 C.ar      1 <0>        -0.1022
      8 C6         -3.3737    2.8451    0.5010 C.ar      1 <0>         0.1488
      9 C7         -3.3477    1.5780   -0.0666 C.ar      1 <0>        -0.1369
     10 C8         -2.1570    0.8851   -0.1539 C.ar      1 <0>        -0.1022
     11 N2         -4.5819    3.5484    0.5891 N.am      1 <0>        -0.6862
     12 C9         -4.5938    4.8883    0.4444 C.2       1 <0>         0.5074
     13 O2         -3.5504    5.4941    0.3195 O.2       1 <0>        -0.4769
     14 C10        -5.9034    5.6339    0.4378 C.3       1 <0>        -0.1115
     15 C11        -5.6473    7.1119    0.1367 C.3       1 <0>        -0.0835
     16 C12        -6.9611    7.8889    0.2419 C.3       1 <0>        -0.0947
     17 C13        -7.9666    7.3297   -0.7667 C.3       1 <0>        -0.1194
     18 C14        -7.4021    7.4715   -2.1817 C.3       1 <0>        -0.1162
     19 C15        -6.0883    6.6945   -2.2869 C.3       1 <0>        -0.1225
     20 C16        -5.0829    7.2537   -1.2783 C.3       1 <0>        -0.0968
     21 C17        -4.6570    7.6628    1.1301 C.2       1 <0>         0.4854
     22 O3         -3.6497    8.2052    0.7416 O.co2     1 <0>        -0.6260
     23 H1          1.9710   -1.3737   -0.1064 H         1 <0>         0.0893
     24 H2          1.8086   -1.3212   -1.8782 H         1 <0>         0.0941
     25 H3          2.5882    0.0265   -1.0156 H         1 <0>         0.0904
     26 H4          0.8845    0.8339    0.9428 H         1 <0>         0.4094
     27 H5         -0.1016    3.1613    1.2763 H         1 <0>         0.1263
     28 H6         -2.2220    4.4008    1.4219 H         1 <0>         0.1490
     29 H7         -4.2590    1.1348   -0.4401 H         1 <0>         0.1258
     30 H8         -2.1366   -0.1001   -0.5960 H         1 <0>         0.1372
     31 H9         -5.4100    3.0710    0.7543 H         1 <0>         0.4053
     32 H10        -6.5562    5.2149   -0.3279 H         1 <0>         0.0837
     33 H11        -6.3803    5.5392    1.4134 H         1 <0>         0.0974
     34 H12        -7.3633    7.7879    1.2499 H         1 <0>         0.0664
     35 H13        -6.7787    8.9419    0.0273 H         1 <0>         0.0573
     36 H14        -8.9025    7.8833   -0.6918 H         1 <0>         0.0545
     37 H15        -8.1490    6.2767   -0.5522 H         1 <0>         0.0585
     38 H16        -7.2196    8.5245   -2.3963 H         1 <0>         0.0586
     39 H17        -8.1184    7.0731   -2.9002 H         1 <0>         0.0513
     40 H18        -5.6862    6.7955   -3.2950 H         1 <0>         0.0525
     41 H19        -6.2708    5.6415   -2.0723 H         1 <0>         0.0535
     42 H20        -4.9004    8.3067   -1.4929 H         1 <0>         0.0592
     43 H21        -4.1469    6.7001   -1.3533 H         1 <0>         0.0733
     44 O4         -4.8940    7.5507    2.4465 O.co2     1 <0>        -0.7820
@<TRIPOS>BOND
     1    1    2 1
     2    1   23 1
     3    1   24 1
     4    1   25 1
     5    2    3 2
     6    2    4 am
     7    4    5 1
     8    4   26 1
     9    5   10 ar
    10    5    6 ar
    11    6    7 ar
    12    6   27 1
    13    7    8 ar
    14    7   28 1
    15    8    9 ar
    16    8   11 1
    17    9   10 ar
    18    9   29 1
    19   10   30 1
    20   11   12 am
    21   11   31 1
    22   12   13 2
    23   12   14 1
    24   14   15 1
    25   14   32 1
    26   14   33 1
    27   15   20 1
    28   15   16 1
    29   15   21 1
    30   16   17 1
    31   16   34 1
    32   16   35 1
    33   17   18 1
    34   17   36 1
    35   17   37 1
    36   18   19 1
    37   18   38 1
    38   18   39 1
    39   19   20 1
    40   19   40 1
    41   19   41 1
    42   20   42 1
    43   20   43 1
    44   21   22 2
    45   21   44 1
@<TRIPOS>MOLECULE
ZINC37309192
   39    40     0     0     0
SMALL
USER_CHARGES

@<TRIPOS>ATOM
      1 C1          0.0218    1.5304    0.2360 C.3       1 <0>        -0.1461
      2 C2          0.0385    0.0005    0.2366 C.3       1 <0>        -0.0971
      3 C3          0.5169   -0.5049   -1.1259 C.3       1 <0>        -0.1086
      4 C4          0.5336   -2.0348   -1.1253 C.3       1 <0>        -0.1132
      5 C5          1.4828   -2.5341   -0.0341 C.3       1 <0>         0.0733
      6 C6          1.0043   -2.0287    1.3284 C.3       1 <0>        -0.1465
      7 C7          0.9877   -0.4988    1.3278 C.3       1 <0>        -0.1086
      8 O1          1.4983   -3.9630   -0.0335 O.3       1 <0>        -0.2500
      9 C8          2.6064   -4.5664    0.4633 C.ar      1 <0>         0.2196
     10 C9          3.6120   -3.8077    1.0442 C.ar      1 <0>        -0.2529
     11 C10         4.7392   -4.4234    1.5500 C.ar      1 <0>         0.0117
     12 C11         4.8769   -5.8009    1.4821 C.ar      1 <0>        -0.7308
     13 C12         3.8895   -6.5710    0.9091 C.ar      1 <0>         0.0496
     14 C13         2.7389   -5.9617    0.3975 C.ar      1 <0>        -0.1893
     15 C14         1.6768   -6.7784   -0.2112 C.2       1 <0>         0.5234
     16 O2          1.7962   -7.9947   -0.2665 O.co2     1 <0>        -0.6883
     17 O3          0.6743   -6.2411   -0.6619 O.co2     1 <0>        -0.6648
     18 S1          6.3229   -6.5704    2.1315 S.o2      1 <0>         2.7054
     19 O4          6.4588   -7.8138    1.4572 O.2       1 <0>        -0.9667
     20 O5          7.3458   -5.5841    2.1245 O.2       1 <0>        -0.9778
     21 N1          6.0176   -6.9244    3.7202 N.pl3     1 <0>        -1.2525
     22 H1          1.0270    1.9046    0.0422 H         1 <0>         0.0532
     23 H2         -0.6544    1.8860   -0.5414 H         1 <0>         0.0539
     24 H3         -0.3191    1.8904    1.2067 H         1 <0>         0.0530
     25 H4         -0.9668   -0.3738    0.4304 H         1 <0>         0.0731
     26 H5         -0.1593   -0.1493   -1.9033 H         1 <0>         0.0690
     27 H6          1.5221   -0.1307   -1.3197 H         1 <0>         0.0623
     28 H7         -0.4717   -2.4091   -0.9315 H         1 <0>         0.0775
     29 H8          0.8744   -2.3949   -2.0960 H         1 <0>         0.0736
     30 H9          2.4880   -2.1599   -0.2279 H         1 <0>         0.0689
     31 H10        -0.0009   -2.4029    1.5222 H         1 <0>         0.0763
     32 H11         1.6806   -2.3844    2.1058 H         1 <0>         0.0686
     33 H12         1.9929   -0.1246    1.1340 H         1 <0>         0.0620
     34 H13         0.6468   -0.1387    2.2985 H         1 <0>         0.0655
     35 H14         3.5130   -2.7337    1.1006 H         1 <0>         0.1334
     36 H15         5.5190   -3.8278    2.0012 H         1 <0>         0.1356
     37 H16         4.0015   -7.6439    0.8582 H         1 <0>         0.1518
     38 H17         5.1586   -6.6996    4.1107 H         1 <0>         0.4168
     39 H18         6.6977   -7.3565    4.2601 H         1 <0>         0.4154
@<TRIPOS>BOND
     1    1    2 1
     2    1   22 1
     3    1   23 1
     4    1   24 1
     5    2    7 1
     6    2    3 1
     7    2   25 1
     8    3    4 1
     9    3   26 1
    10    3   27 1
    11    4    5 1
    12    4   28 1
    13    4   29 1
    14    5    6 1
    15    5    8 1
    16    5   30 1
    17    6    7 1
    18    6   31 1
    19    6   32 1
    20    7   33 1
    21    7   34 1
    22    8    9 1
    23    9   14 ar
    24    9   10 ar
    25   10   11 ar
    26   10   35 1
    27   11   12 ar
    28   11   36 1
    29   12   13 ar
    30   12   18 1
    31   13   14 ar
    32   13   37 1
    33   14   15 1
    34   15   16 2
    35   15   17 1
    36   18   19 2
    37   18   20 2
    38   18   21 1
    39   21   38 1
    40   21   39 1
@<TRIPOS>MOLECULE
ZINC40520845
   29    30     0     0     0
SMALL
USER_CHARGES

@<TRIPOS>ATOM
      1 C1         -0.0125    1.3932   -0.1894 C.ar      1 <0>        -0.0962
      2 C2          1.1681    2.0903   -0.1901 C.ar      1 <0>        -0.1132
      3 C3          2.3755    1.4189   -0.0196 C.ar      1 <0>         0.1335
      4 C4          2.3906    0.0376    0.1528 C.ar      1 <0>        -0.1347
      5 C5          1.2152   -0.6680    0.1550 C.ar      1 <0>        -0.1023
      6 C6         -0.0023    0.0032   -0.0162 C.ar      1 <0>        -0.0414
      7 C7         -1.2639   -0.7479   -0.0142 C.2       1 <0>        -0.1177
      8 C8         -1.2517   -2.0910    0.1533 C.2       1 <0>        -0.1624
      9 C9         -2.4662   -2.8140    0.1552 C.2       1 <0>         0.4988
     10 O1         -3.5301   -2.2249    0.0053 O.co2     1 <0>        -0.6943
     11 O2         -2.4551   -4.0298    0.3069 O.co2     1 <0>        -0.6997
     12 N1          3.5733    2.1319   -0.0220 N.am      1 <0>        -0.6687
     13 C10         3.6137    3.3831    0.4772 C.2       1 <0>         0.6946
     14 O3          2.6314    3.8543    1.0168 O.2       1 <0>        -0.5006
     15 N2          4.7430    4.1120    0.3782 N.am      1 <0>        -0.6206
     16 C11         4.7847    5.4031    0.8933 C.2       1 <0>         0.2646
     17 N3          3.8392    6.0824    1.5120 N.2       1 <0>        -0.3032
     18 N4          4.0272    7.2605    1.9286 N.2       1 <0>        -0.2286
     19 C12         5.2016    7.8276    1.7398 C.2       1 <0>         0.0020
     20 S1          6.0599    6.5060    0.8963 S.3       1 <0>         0.0711
     21 H1         -0.9491    1.9155   -0.3176 H         1 <0>         0.1293
     22 H2          1.1613    3.1620   -0.3236 H         1 <0>         0.1324
     23 H3          3.3298   -0.4790    0.2847 H         1 <0>         0.1234
     24 H4          1.2279   -1.7397    0.2881 H         1 <0>         0.1326
     25 H5         -2.2017   -0.2287   -0.1463 H         1 <0>         0.1292
     26 H6         -0.3140   -2.6102    0.2854 H         1 <0>         0.1003
     27 H7          4.3777    1.7275   -0.3829 H         1 <0>         0.4071
     28 H8          5.5267    3.7361   -0.0524 H         1 <0>         0.4253
     29 H9          5.5487    8.8114    2.0194 H         1 <0>         0.2393
@<TRIPOS>BOND
     1    1    6 ar
     2    1    2 ar
     3    1   21 1
     4    2    3 ar
     5    2   22 1
     6    3    4 ar
     7    3   12 1
     8    4    5 ar
     9    4   23 1
    10    5    6 ar
    11    5   24 1
    12    6    7 1
    13    7    8 2
    14    7   25 1
    15    8    9 1
    16    8   26 1
    17    9   10 2
    18    9   11 1
    19   12   13 am
    20   12   27 1
    21   13   14 2
    22   13   15 am
    23   15   16 1
    24   15   28 1
    25   16   20 1
    26   16   17 2
    27   17   18 1
    28   18   19 2
    29   19   20 1
    30   19   29 1
@<TRIPOS>MOLECULE
ZINC50633927
   35    36     0     0     0
SMALL
USER_CHARGES

@<TRIPOS>ATOM
      1 C1         -0.0187    1.5258    0.0104 C.3       1 <0>        -0.1402
      2 C2          0.0021   -0.0041    0.0020 C.3       1 <0>        -0.0393
      3 C3          0.7182   -0.4975   -1.2568 C.3       1 <0>        -0.1401
      4 C4          0.7309   -0.5033    1.2229 C.ar      1 <0>        -0.1883
      5 C5          2.0505   -0.1468    1.4324 C.ar      1 <0>        -0.0716
      6 C6          2.7215   -0.6025    2.5502 C.ar      1 <0>        -0.1822
      7 C7          2.0692   -1.4199    3.4646 C.ar      1 <0>         0.2770
      8 C8          0.7436   -1.7760    3.2511 C.ar      1 <0>        -0.2633
      9 C9          0.0770   -1.3122    2.1341 C.ar      1 <0>        -0.0615
     10 N1          2.7449   -1.8830    4.5959 N.2       1 <0>        -1.0929
     11 S1          1.9656   -2.8572    5.6848 S.o2      1 <0>         2.6178
     12 O1          0.9453   -2.0668    6.2795 O.2       1 <0>        -1.0293
     13 O2          1.6889   -4.0780    5.0122 O.2       1 <0>        -1.0292
     14 C10         3.1180   -3.2364    6.9627 C.ar      1 <0>        -0.7799
     15 C11         3.9408   -4.3477    6.8673 C.ar      1 <0>         0.2835
     16 N2          4.7950   -4.6039    7.8442 N.ar      1 <0>        -0.5837
     17 C12         4.8689   -3.8124    8.9042 C.ar      1 <0>         0.5819
     18 N3          4.0965   -2.7429    9.0263 N.ar      1 <0>        -0.5838
     19 C13         3.2254   -2.4266    8.0824 C.ar      1 <0>         0.2834
     20 N4          5.7740   -4.1103    9.9079 N.pl3     1 <0>        -0.8188
     21 H1          1.0039    1.9031    0.0027 H         1 <0>         0.0529
     22 H2         -0.5459    1.8868   -0.8726 H         1 <0>         0.0442
     23 H3         -0.5289    1.8773    0.9072 H         1 <0>         0.0524
     24 H4         -1.0205   -0.3814    0.0098 H         1 <0>         0.0633
     25 H5          1.7408   -0.1202   -1.2645 H         1 <0>         0.0529
     26 H6          0.7330   -1.5874   -1.2628 H         1 <0>         0.0524
     27 H7          0.1910   -0.1364   -2.1398 H         1 <0>         0.0442
     28 H8          2.5572    0.4884    0.7209 H         1 <0>         0.1020
     29 H9          3.7522   -0.3241    2.7130 H         1 <0>         0.1095
     30 H10         0.2337   -2.4117    3.9599 H         1 <0>         0.0958
     31 H11        -0.9550   -1.5851    1.9698 H         1 <0>         0.0994
     32 H12         3.8850   -4.9967    6.0058 H         1 <0>         0.1819
     33 H13         2.6019   -1.5507    8.1853 H         1 <0>         0.1819
     34 H14         6.3449   -4.8907    9.8304 H         1 <0>         0.4139
     35 H15         5.8376   -3.5386   10.6890 H         1 <0>         0.4139
@<TRIPOS>BOND
     1    1    2 1
     2    1   21 1
     3    1   22 1
     4    1   23 1
     5    2    3 1
     6    2    4 1
     7    2   24 1
     8    3   25 1
     9    3   26 1
    10    3   27 1
    11    4    9 ar
    12    4    5 ar
    13    5    6 ar
    14    5   28 1
    15    6    7 ar
    16    6   29 1
    17    7    8 ar
    18    7   10 1
    19    8    9 ar
    20    8   30 1
    21    9   31 1
    22   10   11 1
    23   11   12 2
    24   11   13 2
    25   11   14 1
    26   14   19 ar
    27   14   15 ar
    28   15   16 ar
    29   15   32 1
    30   16   17 ar
    31   17   18 ar
    32   17   20 1
    33   18   19 ar
    34   19   33 1
    35   20   34 1
    36   20   35 1
@<TRIPOS>MOLECULE
ZINC61827665
   46    46     0     0     0
SMALL
USER_CHARGES

@<TRIPOS>ATOM
      1 C1         -0.0187    1.5258    0.0104 C.3       1 <0>        -0.1467
      2 C2          0.0021   -0.0041    0.0020 C.3       1 <0>        -0.0891
      3 H1          0.5123   -0.3556   -0.8948 H         1 <0>         0.0737
      4 C3         -1.4333   -0.5336    0.0129 C.3       1 <0>        -0.1157
      5 C4         -1.4126   -2.0635    0.0045 C.3       1 <0>        -0.1176
      6 C5         -0.6726   -2.5703    1.2440 C.3       1 <0>        -0.1310
      7 C6          0.7628   -2.0407    1.2331 C.3       1 <0>         0.1616
      8 H2          1.2730   -2.3923    0.3363 H         1 <0>         0.0895
      9 C7          0.7421   -0.5109    1.2415 C.3       1 <0>        -0.1201
     10 N1          1.4714   -2.5260    2.4200 N.am      1 <0>        -0.7398
     11 C8          2.0564   -3.7401    2.4061 C.2       1 <0>         0.6917
     12 O1          1.9961   -4.4324    1.4089 O.2       1 <0>        -0.5299
     13 N2          2.7083   -4.1866    3.4980 N.am      1 <0>        -0.6970
     14 C9          3.2933   -5.4007    3.4841 C.2       1 <0>         0.5120
     15 O2          3.2332   -6.0912    2.4894 O.2       1 <0>        -0.4443
     16 C10         4.0222   -5.8999    4.7050 C.3       1 <0>        -0.1307
     17 C11         4.5890   -7.2934    4.4263 C.3       1 <0>        -0.0213
     18 C12         3.4448   -8.2512    4.0882 C.3       1 <0>        -0.1577
     19 C13         5.5601   -7.2223    3.2461 C.3       1 <0>        -0.1576
     20 C14         5.3290   -7.8002    5.6658 C.3       1 <0>        -0.1751
     21 C15         5.8874   -9.1728    5.3913 C.2       1 <0>         0.4940
     22 O3          5.7099   -9.6970    4.3049 O.co2     1 <0>        -0.6802
     23 O4          6.5166   -9.7590    6.2555 O.co2     1 <0>        -0.7095
     24 H3          1.0039    1.9031    0.0027 H         1 <0>         0.0549
     25 H4         -0.5459    1.8868   -0.8726 H         1 <0>         0.0558
     26 H5         -0.5289    1.8773    0.9072 H         1 <0>         0.0543
     27 H6         -1.9435   -0.1821    0.9097 H         1 <0>         0.0623
     28 H7         -1.9605   -0.1726   -0.8702 H         1 <0>         0.0631
     29 H8         -2.4352   -2.4408    0.0122 H         1 <0>         0.0650
     30 H9         -0.9024   -2.4150   -0.8923 H         1 <0>         0.0653
     31 H10        -1.1828   -2.2188    2.1408 H         1 <0>         0.0624
     32 H11        -0.6578   -3.6602    1.2380 H         1 <0>         0.0696
     33 H12         1.7647   -0.1336    1.2338 H         1 <0>         0.0693
     34 H13         0.2319   -0.1594    2.1383 H         1 <0>         0.0680
     35 H14         1.5195   -1.9736    3.2158 H         1 <0>         0.3952
     36 H15         2.7563   -3.6341    4.2938 H         1 <0>         0.4053
     37 H16         4.8373   -5.2175    4.9458 H         1 <0>         0.0910
     38 H17         3.3303   -5.9506    5.5458 H         1 <0>         0.0909
     39 H18         2.9176   -7.8901    3.2051 H         1 <0>         0.0594
     40 H19         3.8487   -9.2440    3.8897 H         1 <0>         0.0965
     41 H20         2.7530   -8.3019    4.9290 H         1 <0>         0.0242
     42 H21         6.3753   -6.5399    3.4870 H         1 <0>         0.0242
     43 H22         5.9640   -8.2150    3.0475 H         1 <0>         0.0965
     44 H23         5.0330   -6.8612    2.3630 H         1 <0>         0.0594
     45 H24         6.1442   -7.1179    5.9067 H         1 <0>         0.0540
     46 H25         4.6372   -7.8509    6.5066 H         1 <0>         0.0540
@<TRIPOS>BOND
     1    1    2 1
     2    1   24 1
     3    1   25 1
     4    1   26 1
     5    2    3 1
     6    2    9 1
     7    2    4 1
     8    4    5 1
     9    4   27 1
    10    4   28 1
    11    5    6 1
    12    5   29 1
    13    5   30 1
    14    6    7 1
    15    6   31 1
    16    6   32 1
    17    7    8 1
    18    7    9 1
    19    7   10 1
    20    9   33 1
    21    9   34 1
    22   10   11 am
    23   10   35 1
    24   11   12 2
    25   11   13 am
    26   13   14 am
    27   13   36 1
    28   14   15 2
    29   14   16 1
    30   16   17 1
    31   16   37 1
    32   16   38 1
    33   17   18 1
    34   17   19 1
    35   17   20 1
    36   18   39 1
    37   18   40 1
    38   18   41 1
    39   19   42 1
    40   19   43 1
    41   19   44 1
    42   20   21 1
    43   20   45 1
    44   20   46 1
    45   21   22 2
    46   21   23 1
@<TRIPOS>MOLECULE
ZINC31891318
   31    34     0     0     0
SMALL
USER_CHARGES
6-(2-aminothiazolo[2,3-e][1,2,4]triazol-6-yl)-3,4-dihydro-1H-quinolin-2-one
@<TRIPOS>ATOM
      1 C1          2.2876    5.3669   -0.3399 C.ar      1 <0>        -0.0592
      2 C2          2.2840    3.9884   -0.3633 C.ar      1 <0>        -0.1539
      3 C3          1.1486    3.2880    0.0255 C.ar      1 <0>         0.1835
      4 C4          0.0132    3.9753    0.4396 C.ar      1 <0>        -0.1294
      5 C5          0.0102    5.3530    0.4658 C.ar      1 <0>        -0.0535
      6 C6          1.1494    6.0594    0.0756 C.ar      1 <0>        -0.0782
      7 C7          1.1499    7.5382    0.1020 C.2       1 <0>         0.1580
      8 C8          0.0836    8.2025    0.5933 C.2       1 <0>        -0.2037
      9 S1          0.5936    9.9029    0.3972 S.3       1 <0>         0.1777
     10 C9          2.1838    9.5917   -0.3318 C.2       1 <0>         0.2492
     11 N1          2.2392    8.2348   -0.3814 N.pl3     1 <0>        -0.3460
     12 N2          3.5045    7.9574   -0.9620 N.2       1 <0>        -0.3628
     13 C10         4.0900    9.1041   -1.2077 C.2       1 <0>         0.5125
     14 N3          3.2837   10.0966   -0.8230 N.2       1 <0>        -0.5246
     15 N4          5.3528    9.2623   -1.7801 N.pl3     1 <0>        -0.8384
     16 C11        -1.2145    3.2094    0.8604 C.3       1 <0>        -0.0773
     17 C12        -1.3327    1.9344    0.0189 C.3       1 <0>        -0.1422
     18 C13        -0.0144    1.2087    0.0087 C.2       1 <0>         0.5215
     19 O1          0.0021   -0.0041    0.0020 O.2       1 <0>        -0.5255
     20 N5          1.1462    1.8893    0.0013 N.am      1 <0>        -0.6772
     21 H1          3.1706    5.9103   -0.6422 H         1 <0>         0.1534
     22 H2          3.1648    3.4522   -0.6843 H         1 <0>         0.1335
     23 H3         -0.8724    5.8858    0.7875 H         1 <0>         0.1376
     24 H4         -0.8365    7.8092    0.9998 H         1 <0>         0.2238
     25 H5          5.7588   10.2710   -1.9465 H         1 <0>         0.4425
     26 H6          5.9423    8.3783   -2.0649 H         1 <0>         0.4410
     27 H7         -1.1326    2.9411    1.9240 H         1 <0>         0.0863
     28 H8         -2.1068    3.8343    0.7076 H         1 <0>         0.0954
     29 H9         -2.1052    1.2808    0.4502 H         1 <0>         0.1126
     30 H10        -1.6106    2.1998   -1.0118 H         1 <0>         0.1057
     31 H11         2.0978    1.3380   -0.0240 H         1 <0>         0.4376
@<TRIPOS>BOND
     1    1    6 ar
     2    1    2 ar
     3    1   21 1
     4    2    3 ar
     5    2   22 1
     6    3   20 1
     7    3    4 ar
     8    4    5 ar
     9    4   16 1
    10    5    6 ar
    11    5   23 1
    12    6    7 1
    13    7   11 1
    14    7    8 2
    15    8    9 1
    16    8   24 1
    17    9   10 1
    18   10   14 2
    19   10   11 1
    20   11   12 1
    21   12   13 2
    22   13   14 1
    23   13   15 1
    24   15   25 1
    25   15   26 1
    26   16   17 1
    27   16   27 1
    28   16   28 1
    29   17   18 1
    30   17   29 1
    31   17   30 1
    32   18   19 2
    33   18   20 am
    34   20   31 1
@<TRIPOS>MOLECULE
ZINC40291963
   42    43     0     0     0
SMALL
USER_CHARGES

@<TRIPOS>ATOM
      1 C1         -0.0184    1.5028    0.0103 C.3       1 <0>        -0.1248
      2 C2          0.0021   -0.0041    0.0020 C.ar      1 <0>        -0.0080
      3 C3          0.0062   -0.7122   -1.1884 C.ar      1 <0>         0.0352
      4 N1          0.0237   -2.0307   -1.1738 N.ar      1 <0>        -0.1862
      5 N2          0.0379   -2.7098   -0.0856 N.ar      1 <0>        -0.2973
      6 C4          0.0360   -2.1339    1.1056 C.ar      1 <0>         0.2981
      7 C5          0.0233   -0.7325    1.1967 C.ar      1 <0>        -0.0752
      8 C6          0.0266   -0.0502    2.5099 C.2       1 <0>         0.4274
      9 N3         -1.0983    0.2345    3.0977 N.2       1 <0>        -0.4013
     10 O1         -1.0952    0.8873    4.3543 O.3       1 <0>        -0.4201
     11 N4          1.2273    0.2854    3.1129 N.pl3     1 <0>        -0.8608
     12 O2          0.0513   -2.8911    2.2300 O.3       1 <0>        -0.2779
     13 C7          0.0693   -4.3094    2.0568 C.3       1 <0>         0.0868
     14 H1          0.5820   -4.5555    1.1269 H         1 <0>         0.0926
     15 C8         -1.3667   -4.8347    2.0019 C.3       1 <0>        -0.1351
     16 C9         -2.0864   -4.4894    3.3071 C.3       1 <0>        -0.1187
     17 C10        -1.3509   -5.1373    4.4819 C.3       1 <0>        -0.1137
     18 C11         0.0851   -4.6121    4.5368 C.3       1 <0>        -0.0905
     19 H2          0.0714   -3.5302    4.6689 H         1 <0>         0.0749
     20 C12         0.8048   -4.9574    3.2316 C.3       1 <0>        -0.1103
     21 C13         0.8206   -5.2601    5.7116 C.3       1 <0>        -0.1481
     22 C14        -0.0098    0.0254   -2.5024 C.3       1 <0>        -0.0995
     23 H3          1.0042    1.8801    0.0026 H         1 <0>         0.0911
     24 H4         -0.5455    1.8639   -0.8728 H         1 <0>         0.0914
     25 H5         -0.5286    1.8543    0.9071 H         1 <0>         0.0808
     26 H6         -1.9776    1.0567    4.7117 H         1 <0>         0.4024
     27 H7          2.0661    0.0731    2.6746 H         1 <0>         0.3972
     28 H8          1.2294    0.7326    3.9737 H         1 <0>         0.4114
     29 H9         -1.8907   -4.3731    1.1649 H         1 <0>         0.0685
     30 H10        -1.3530   -5.9166    1.8698 H         1 <0>         0.0807
     31 H11        -2.1000   -3.4075    3.4392 H         1 <0>         0.0663
     32 H12        -3.1094   -4.8636    3.2680 H         1 <0>         0.0633
     33 H13        -1.8636   -4.8913    5.4118 H         1 <0>         0.0627
     34 H14        -1.3372   -6.2192    4.3498 H         1 <0>         0.0623
     35 H15         0.8184   -6.0393    3.0995 H         1 <0>         0.0863
     36 H16         1.8278   -4.5832    3.2707 H         1 <0>         0.0702
     37 H17         0.8343   -6.3419    5.5795 H         1 <0>         0.0549
     38 H18         1.8436   -4.8859    5.7507 H         1 <0>         0.0537
     39 H19         0.3079   -5.0140    6.6415 H         1 <0>         0.0555
     40 H20         1.0139    0.2172   -2.8240 H         1 <0>         0.0854
     41 H21        -0.5189   -0.5797   -3.2526 H         1 <0>         0.0853
     42 H22        -0.5360    0.9723   -2.3812 H         1 <0>         0.0831
@<TRIPOS>BOND
     1    1    2 1
     2    1   23 1
     3    1   24 1
     4    1   25 1
     5    2    7 ar
     6    2    3 ar
     7    3    4 ar
     8    3   22 1
     9    4    5 ar
    10    5    6 ar
    11    6    7 ar
    12    6   12 1
    13    7    8 1
    14    8    9 2
    15    8   11 1
    16    9   10 1
    17   10   26 1
    18   11   27 1
    19   11   28 1
    20   12   13 1
    21   13   14 1
    22   13   20 1
    23   13   15 1
    24   15   16 1
    25   15   29 1
    26   15   30 1
    27   16   17 1
    28   16   31 1
    29   16   32 1
    30   17   18 1
    31   17   33 1
    32   17   34 1
    33   18   19 1
    34   18   20 1
    35   18   21 1
    36   20   35 1
    37   20   36 1
    38   21   37 1
    39   21   38 1
    40   21   39 1
    41   22   40 1
    42   22   41 1
    43   22   42 1
@<TRIPOS>MOLECULE
ZINC44785405
   48    49     0     0     0
SMALL
USER_CHARGES

@<TRIPOS>ATOM
      1 C1          1.6120   -2.0342   -1.6263 C.3       1 <0>         0.0538
      2 N1          0.6580   -1.4545   -0.6776 N.am      1 <0>        -0.6009
      3 C2          0.4885   -2.0530    0.6488 C.3       1 <0>         0.1370
      4 C3          1.8254   -2.0294    1.3962 C.3       1 <0>        -0.1649
      5 C4          1.6574   -2.7270    2.7486 C.3       1 <0>         0.0637
      6 O1          1.1949   -4.0629    2.5398 O.3       1 <0>        -0.3802
      7 C5         -0.0737   -4.1458    1.8872 C.3       1 <0>         0.0633
      8 C6          0.0247   -3.5053    0.5002 C.3       1 <0>        -0.1654
      9 C7         -0.0638   -0.3706   -1.0250 C.2       1 <0>         0.5382
     10 O2         -0.7810    0.1676   -0.2084 O.2       1 <0>        -0.5162
     11 C8          0.0204    0.1726   -2.4282 C.3       1 <0>        -0.0086
     12 C9         -1.1048    1.1438   -2.6626 C.3       1 <0>        -0.1000
     13 C10        -2.3195    0.8688   -1.7555 C.3       1 <0>        -0.1116
     14 C11        -2.6389   -0.6326   -1.6237 C.3       1 <0>        -0.1381
     15 C12        -2.5217   -1.3634   -2.9338 C.3       1 <0>        -0.1211
     16 C13        -1.1055   -1.9663   -3.0334 C.3       1 <0>        -0.1372
     17 C14        -0.1117   -0.9839   -3.4403 C.3       1 <0>        -0.1090
     18 C15         1.3432    0.8676   -2.6235 C.2       1 <0>         0.3818
     19 N2          2.1158    0.5233   -3.5999 N.2       1 <0>        -0.4145
     20 O3          3.3587    1.1763   -3.7834 O.3       1 <0>        -0.4243
     21 N3          1.7285    1.8697   -1.7609 N.pl3     1 <0>        -0.8661
     22 H1          1.0980   -2.7517   -2.2658 H         1 <0>         0.0670
     23 H2          2.0406   -1.2421   -2.2403 H         1 <0>         0.0882
     24 H3          2.4072   -2.5399   -1.0787 H         1 <0>         0.0727
     25 H4         -0.2552   -1.4885    1.2112 H         1 <0>         0.1047
     26 H5          2.5805   -2.5514    0.8084 H         1 <0>         0.0766
     27 H6          2.1357   -0.9967    1.5551 H         1 <0>         0.0772
     28 H7          2.6161   -2.7510    3.2667 H         1 <0>         0.0987
     29 H8          0.9317   -2.1811    3.3515 H         1 <0>         0.0544
     30 H9         -0.3621   -5.1920    1.7848 H         1 <0>         0.0993
     31 H10        -0.8220   -3.6185    2.4788 H         1 <0>         0.0542
     32 H11        -0.9527   -3.5280    0.0183 H         1 <0>         0.0789
     33 H12         0.7435   -4.0570   -0.1057 H         1 <0>         0.0773
     34 H13        -0.7438    2.1544   -2.4718 H         1 <0>         0.0679
     35 H14        -1.4194    1.0745   -3.7039 H         1 <0>         0.0758
     36 H15        -2.1165    1.2734   -0.7640 H         1 <0>         0.0959
     37 H16        -3.1897    1.3783   -2.1693 H         1 <0>         0.0503
     38 H17        -1.9482   -1.0786   -0.9080 H         1 <0>         0.0769
     39 H18        -3.6555   -0.7451   -1.2468 H         1 <0>         0.0550
     40 H19        -3.2631   -2.1614   -2.9755 H         1 <0>         0.0623
     41 H20        -2.6821   -0.6673   -3.7570 H         1 <0>         0.0660
     42 H21        -0.8247   -2.3705   -2.0609 H         1 <0>         0.0694
     43 H22        -1.1178   -2.7780   -3.7608 H         1 <0>         0.0700
     44 H23        -0.3966   -0.5741   -4.4093 H         1 <0>         0.0792
     45 H24         0.8544   -1.4789   -3.5386 H         1 <0>         0.0918
     46 H25         3.8663    0.8507   -4.5393 H         1 <0>         0.4013
     47 H26         1.1873    2.0742   -0.9824 H         1 <0>         0.3996
     48 H27         2.5411    2.3710   -1.9320 H         1 <0>         0.4097
@<TRIPOS>BOND
     1    1    2 1
     2    1   22 1
     3    1   23 1
     4    1   24 1
     5    2    3 1
     6    2    9 am
     7    3    8 1
     8    3    4 1
     9    3   25 1
    10    4    5 1
    11    4   26 1
    12    4   27 1
    13    5    6 1
    14    5   28 1
    15    5   29 1
    16    6    7 1
    17    7    8 1
    18    7   30 1
    19    7   31 1
    20    8   32 1
    21    8   33 1
    22    9   10 2
    23    9   11 1
    24   11   17 1
    25   11   12 1
    26   11   18 1
    27   12   13 1
    28   12   34 1
    29   12   35 1
    30   13   14 1
    31   13   36 1
    32   13   37 1
    33   14   15 1
    34   14   38 1
    35   14   39 1
    36   15   16 1
    37   15   40 1
    38   15   41 1
    39   16   17 1
    40   16   42 1
    41   16   43 1
    42   17   44 1
    43   17   45 1
    44   18   19 2
    45   18   21 1
    46   19   20 1
    47   20   46 1
    48   21   47 1
    49   21   48 1
@<TRIPOS>MOLECULE
ZINC50309955
   44    45     0     0     0
SMALL
USER_CHARGES

@<TRIPOS>ATOM
      1 C1         -0.0622    1.5096    0.0082 C.3       1 <0>        -0.1467
      2 C2         -0.0155   -0.0197   -0.0040 C.3       1 <0>        -0.1264
      3 C3          0.7207   -0.4975   -1.2572 C.3       1 <0>         0.1065
      4 H1          1.7063   -0.0342   -1.3029 H         1 <0>         0.1079
      5 C4          0.8685   -2.0228   -1.2191 C.3       1 <0>         0.0550
      6 O1         -0.4223   -2.6241   -1.3459 O.3       1 <0>        -0.3752
      7 C5         -1.0801   -2.3424   -2.5835 C.3       1 <0>         0.0749
      8 H2         -0.4517   -2.6684   -3.4123 H         1 <0>         0.0597
      9 C6         -1.3277   -0.8334   -2.6915 C.3       1 <0>         0.0479
     10 N1         -0.0533   -0.1352   -2.4551 N.am      1 <0>        -0.5960
     11 C7          0.3919    0.8067   -3.3101 C.2       1 <0>         0.6117
     12 O2          1.4062    1.4275   -3.0565 O.2       1 <0>        -0.5390
     13 C8         -0.3511    1.0844   -4.5533 C.2       1 <0>        -0.0603
     14 C9          0.0515    1.9533   -5.6000 C.2       1 <0>         0.1624
     15 C10        -0.9417    1.8885   -6.5260 C.2       1 <0>        -0.0635
     16 N2         -1.8772    1.0269   -6.0474 N.pl3     1 <0>        -0.3625
     17 H3         -2.6990    0.7897   -6.5049 H         1 <0>         0.4460
     18 N3         -1.5131    0.5671   -4.9047 N.2       1 <0>        -0.2409
     19 C11        -0.9953    2.6320   -7.8357 C.3       1 <0>        -0.0127
     20 C12        -1.0633    1.6291   -8.9891 C.3       1 <0>        -0.1486
     21 C13        -2.2363    3.5265   -7.8639 C.3       1 <0>        -0.1488
     22 N4          1.2257    2.7176   -5.6656 N.pl3     1 <0>        -0.8534
     23 C14        -2.4167   -3.0854   -2.6326 C.3       1 <0>        -0.1427
     24 H4          0.9539    1.9041    0.0112 H         1 <0>         0.0562
     25 H5         -0.5870    1.8642   -0.8789 H         1 <0>         0.0495
     26 H6         -0.5867    1.8500    0.9010 H         1 <0>         0.0536
     27 H7          0.5093   -0.3742    0.8831 H         1 <0>         0.0750
     28 H8         -1.0317   -0.4141   -0.0069 H         1 <0>         0.0701
     29 H9          1.5040   -2.3477   -2.0429 H         1 <0>         0.0549
     30 H10         1.3178   -2.3215   -0.2720 H         1 <0>         0.1075
     31 H11        -1.6987   -0.5926   -3.6877 H         1 <0>         0.1463
     32 H12        -2.0585   -0.5269   -1.9431 H         1 <0>         0.0725
     33 H13        -0.1017    3.2470   -7.9412 H         1 <0>         0.0887
     34 H14        -1.9570    1.0140   -8.8837 H         1 <0>         0.0527
     35 H15        -1.1021    2.1669   -9.9364 H         1 <0>         0.0649
     36 H16        -0.1792    0.9918   -8.9691 H         1 <0>         0.0595
     37 H17        -2.1879    4.2410   -7.0422 H         1 <0>         0.0598
     38 H18        -2.2751    4.0643   -8.8112 H         1 <0>         0.0649
     39 H19        -3.1300    2.9115   -7.7584 H         1 <0>         0.0527
     40 H20         1.8678    2.6834   -4.9393 H         1 <0>         0.4127
     41 H21         1.3957    3.2803   -6.4372 H         1 <0>         0.3970
     42 H22        -3.0452   -2.7576   -1.8046 H         1 <0>         0.0657
     43 H23        -2.9176   -2.8702   -3.5764 H         1 <0>         0.0739
     44 H24        -2.2394   -4.1579   -2.5516 H         1 <0>         0.0667
@<TRIPOS>BOND
     1    1    2 1
     2    1   24 1
     3    1   25 1
     4    1   26 1
     5    2    3 1
     6    2   27 1
     7    2   28 1
     8    3    4 1
     9    3   10 1
    10    3    5 1
    11    5    6 1
    12    5   29 1
    13    5   30 1
    14    6    7 1
    15    7    8 1
    16    7    9 1
    17    7   23 1
    18    9   10 1
    19    9   31 1
    20    9   32 1
    21   10   11 am
    22   11   12 2
    23   11   13 1
    24   13   18 2
    25   13   14 1
    26   14   15 2
    27   14   22 1
    28   15   16 1
    29   15   19 1
    30   16   17 1
    31   16   18 1
    32   19   20 1
    33   19   21 1
    34   19   33 1
    35   20   34 1
    36   20   35 1
    37   20   36 1
    38   21   37 1
    39   21   38 1
    40   21   39 1
    41   22   40 1
    42   22   41 1
    43   23   42 1
    44   23   43 1
    45   23   44 1
@<TRIPOS>MOLECULE
ZINC22122249
   37    38     0     0     0
SMALL
USER_CHARGES

@<TRIPOS>ATOM
      1 C1         -0.0184    1.5028    0.0103 C.3       1 <0>        -0.1272
      2 C2          0.0021   -0.0041    0.0020 C.ar      1 <0>         0.0380
      3 C3          0.0061   -0.7051   -1.1930 C.ar      1 <0>        -0.1595
      4 C4          0.0257   -2.0884   -1.1756 C.ar      1 <0>         0.1683
      5 N1          0.0406   -2.7486   -0.0284 N.ar      1 <0>        -0.4887
      6 C5          0.0378   -2.1299    1.1402 C.ar      1 <0>         0.1597
      7 C6          0.0232   -0.7246    1.2003 C.ar      1 <0>        -0.0649
      8 C7          0.0261   -0.0465    2.4615 C.1       1 <0>         0.2501
      9 N2          0.0283    0.4915    3.4621 N.1       1 <0>        -0.3861
     10 S1          0.0582   -3.0706    2.6299 S.3       1 <0>         0.0287
     11 C8          0.0792   -4.7929    2.0610 C.3       1 <0>        -0.1071
     12 C9          1.3868   -5.0680    1.3158 C.3       1 <0>        -0.1447
     13 C10        -0.0259   -5.7153    3.2481 C.2       1 <0>         0.5380
     14 O1          0.2533   -5.3111    4.3565 O.2       1 <0>        -0.4439
     15 N3         -0.4304   -6.9896    3.0776 N.am      1 <0>        -0.6845
     16 C11        -0.5244   -7.8146    4.1393 C.2       1 <0>         0.6971
     17 O2         -0.2445   -7.4093    5.2504 O.2       1 <0>        -0.5286
     18 N4         -0.9289   -9.0889    3.9688 N.am      1 <0>        -0.8548
     19 C12         0.0272   -2.6130   -2.5976 C.3       1 <0>        -0.0735
     20 C13        -0.4352   -1.4257   -3.4680 C.3       1 <0>        -0.1197
     21 C14        -0.0078   -0.2077   -2.6218 C.3       1 <0>        -0.0760
     22 H1          1.0042    1.8801    0.0026 H         1 <0>         0.0896
     23 H2         -0.5455    1.8639   -0.8728 H         1 <0>         0.0854
     24 H3         -0.5286    1.8543    0.9071 H         1 <0>         0.0743
     25 H4         -0.7636   -4.9648    1.3916 H         1 <0>         0.1292
     26 H5          1.3995   -6.1029    0.9739 H         1 <0>         0.0722
     27 H6          1.4629   -4.4008    0.4571 H         1 <0>         0.0932
     28 H7          2.2297   -4.8961    1.9852 H         1 <0>         0.0728
     29 H8         -0.6538   -7.3130    2.1908 H         1 <0>         0.4127
     30 H9         -1.1523   -9.4123    3.0820 H         1 <0>         0.4008
     31 H10        -0.9966   -9.6826    4.7329 H         1 <0>         0.4226
     32 H11         1.0318   -2.9236   -2.8848 H         1 <0>         0.0973
     33 H12        -0.6690   -3.4461   -2.6939 H         1 <0>         0.0909
     34 H13         0.0772   -1.4279   -4.4301 H         1 <0>         0.0877
     35 H14        -1.5166   -1.4429   -3.6038 H         1 <0>         0.0789
     36 H15        -0.7286    0.6023   -2.7334 H         1 <0>         0.0832
     37 H16         0.9870    0.1269   -2.9157 H         1 <0>         0.0886
@<TRIPOS>BOND
     1    1    2 1
     2    1   22 1
     3    1   23 1
     4    1   24 1
     5    2    7 ar
     6    2    3 ar
     7    3   21 1
     8    3    4 ar
     9    4    5 ar
    10    4   19 1
    11    5    6 ar
    12    6    7 ar
    13    6   10 1
    14    7    8 1
    15    8    9 3
    16   10   11 1
    17   11   12 1
    18   11   13 1
    19   11   25 1
    20   12   26 1
    21   12   27 1
    22   12   28 1
    23   13   14 2
    24   13   15 am
    25   15   16 am
    26   15   29 1
    27   16   17 2
    28   16   18 am
    29   18   30 1
    30   18   31 1
    31   19   20 1
    32   19   32 1
    33   19   33 1
    34   20   21 1
    35   20   34 1
    36   20   35 1
    37   21   36 1
    38   21   37 1
@<TRIPOS>MOLECULE
ZINC04565435
   39    41     0     0     0
SMALL
USER_CHARGES

@<TRIPOS>ATOM
      1 C1         -0.0048    1.5325   -0.0069 C.3       1 <0>        -0.1006
      2 C2          0.0113    0.0256    0.0017 C.2       1 <0>         0.1377
      3 C3          0.0111   -0.7724   -1.0767 C.2       1 <0>        -0.2661
      4 C4          0.0311   -2.1123   -0.6310 C.2       1 <0>         0.2691
      5 N1          0.0412   -2.1037    0.6703 N.2       1 <0>        -0.2615
      6 N2          0.0345   -0.7667    1.0983 N.pl3     1 <0>        -0.4639
      7 H1          0.0429   -0.4637    2.0198 H         1 <0>         0.4492
      8 O1          0.0395   -3.1605   -1.4977 O.3       1 <0>        -0.2129
      9 C5          0.3007   -2.8929   -2.7926 C.2       1 <0>         0.4369
     10 C6          0.2983   -1.6570   -3.3342 C.2       1 <0>        -0.2613
     11 C7         -0.0069   -0.4119   -2.5402 C.3       1 <0>         0.1297
     12 H2          0.7491    0.3472   -2.7415 H         1 <0>         0.0920
     13 C8         -1.3683    0.1120   -2.9184 C.ar      1 <0>        -0.1306
     14 C9         -2.4848   -0.6876   -2.7558 C.ar      1 <0>        -0.0483
     15 C10        -3.7339   -0.2107   -3.1014 C.ar      1 <0>        -0.1957
     16 C11        -3.8681    1.0738   -3.6129 C.ar      1 <0>         0.2140
     17 C12        -2.7445    1.8744   -3.7750 C.ar      1 <0>        -0.1986
     18 C13        -1.4990    1.3932   -3.4221 C.ar      1 <0>        -0.0649
     19 N3         -5.1299    1.5592   -3.9638 N.pl3     1 <0>        -0.6400
     20 C14        -6.2959    0.6737   -3.9115 C.3       1 <0>         0.0940
     21 C15        -5.2874    2.9537   -4.3843 C.3       1 <0>         0.0891
     22 C16         0.5994   -1.5215   -4.7276 C.1       1 <0>         0.2737
     23 N4          0.8383   -1.4140   -5.8330 N.1       1 <0>        -0.4458
     24 N5          0.5895   -3.9512   -3.6178 N.pl3     1 <0>        -0.8334
     25 H3          1.0188    1.9067   -0.0223 H         1 <0>         0.0886
     26 H4         -0.5340    1.8852   -0.8921 H         1 <0>         0.0948
     27 H5         -0.5109    1.8955    0.8877 H         1 <0>         0.0771
     28 H6         -2.3797   -1.6864   -2.3583 H         1 <0>         0.1123
     29 H7         -4.6054   -0.8358   -2.9744 H         1 <0>         0.1191
     30 H8         -2.8453    2.8734   -4.1727 H         1 <0>         0.1229
     31 H9         -0.6256    2.0166   -3.5437 H         1 <0>         0.1210
     32 H10        -6.7505    0.7297   -2.9224 H         1 <0>         0.0474
     33 H11        -7.0217    0.9840   -4.6632 H         1 <0>         0.0657
     34 H12        -5.9829   -0.3513   -4.1100 H         1 <0>         0.0677
     35 H13        -4.3076    3.4271   -4.4472 H         1 <0>         0.0782
     36 H14        -5.7700    2.9863   -5.3611 H         1 <0>         0.0550
     37 H15        -5.9017    3.4851   -3.6575 H         1 <0>         0.0516
     38 H16         0.6006   -4.8539   -3.2630 H         1 <0>         0.4110
     39 H17         0.7826   -3.7963   -4.5557 H         1 <0>         0.4261
@<TRIPOS>BOND
     1    1    2 1
     2    1   25 1
     3    1   26 1
     4    1   27 1
     5    2    6 1
     6    2    3 2
     7    3   11 1
     8    3    4 1
     9    4    5 2
    10    4    8 1
    11    5    6 1
    12    6    7 1
    13    8    9 1
    14    9   10 2
    15    9   24 1
    16   10   11 1
    17   10   22 1
    18   11   12 1
    19   11   13 1
    20   13   18 ar
    21   13   14 ar
    22   14   15 ar
    23   14   28 1
    24   15   16 ar
    25   15   29 1
    26   16   17 ar
    27   16   19 1
    28   17   18 ar
    29   17   30 1
    30   18   31 1
    31   19   20 1
    32   19   21 1
    33   20   32 1
    34   20   33 1
    35   20   34 1
    36   21   35 1
    37   21   36 1
    38   21   37 1
    39   22   23 3
    40   24   38 1
    41   24   39 1
@<TRIPOS>MOLECULE
ZINC19336442
   27    29     0     0     0
SMALL
USER_CHARGES
4-[3-(4-fluorophenyl)-1H-pyrazol-4-yl]thiazol-2-amine
@<TRIPOS>ATOM
      1 C1         -3.8591    1.6206    1.1970 C.ar      1 <0>        -0.0616
      2 C2         -4.1673    2.9596    1.3222 C.ar      1 <0>        -0.1649
      3 C3         -3.5460    3.8944    0.5100 C.ar      1 <0>         0.1067
      4 C4         -2.6089    3.4904   -0.4271 C.ar      1 <0>        -0.1695
      5 C5         -2.2903    2.1541   -0.5554 C.ar      1 <0>        -0.0076
      6 C6         -2.9128    1.2101    0.2596 C.ar      1 <0>        -0.0178
      7 C7         -2.5736   -0.2274    0.1255 C.2       1 <0>         0.1398
      8 C8         -1.2697   -0.7696    0.0063 C.2       1 <0>        -0.1684
      9 C9         -1.3961   -2.1218   -0.0993 C.2       1 <0>         0.0725
     10 N1         -2.7118   -2.4199   -0.0399 N.pl3     1 <0>        -0.4773
     11 H1         -3.0416   -3.4676   -0.0997 H         1 <0>         0.4766
     12 N2         -3.4296   -1.2257    0.0966 N.2       1 <0>        -0.2706
     13 C10         0.0015   -0.0033   -0.0074 C.2       1 <0>         0.1909
     14 C11         1.1846   -0.6369   -0.2579 C.2       1 <0>        -0.2578
     15 S1          2.3258    0.7353   -0.1488 S.3       1 <0>        -0.0425
     16 C12         1.1182    2.0015    0.2164 C.2       1 <0>         0.4012
     17 N3         -0.0023    1.3016    0.2237 N.2       1 <0>        -0.5739
     18 N4          1.3070    3.3569    0.4335 N.pl3     1 <0>        -0.8202
     19 F1         -3.8552    5.2039    0.6318 F         1 <0>        -0.1415
     20 H2         -4.3472    0.8920    1.8274 H         1 <0>         0.1310
     21 H3         -4.8971    3.2790    2.0513 H         1 <0>         0.1351
     22 H4         -2.1273    4.2225   -1.0584 H         1 <0>         0.1331
     23 H5         -1.5600    1.8400   -1.2864 H         1 <0>         0.1310
     24 H6         -0.5878   -2.8296   -0.2087 H         1 <0>         0.1822
     25 H7          1.3779   -1.6791   -0.4647 H         1 <0>         0.1887
     26 H8          0.4446    4.0048    0.6491 H         1 <0>         0.4403
     27 H9          2.3193    3.7851    0.3903 H         1 <0>         0.4447
@<TRIPOS>BOND
     1    1    6 ar
     2    1    2 ar
     3    1   20 1
     4    2    3 ar
     5    2   21 1
     6    3    4 ar
     7    3   19 1
     8    4    5 ar
     9    4   22 1
    10    5    6 ar
    11    5   23 1
    12    6    7 1
    13    7   12 2
    14    7    8 1
    15    8    9 2
    16    8   13 1
    17    9   10 1
    18    9   24 1
    19   10   11 1
    20   10   12 1
    21   13   17 1
    22   13   14 2
    23   14   15 1
    24   14   25 1
    25   15   16 1
    26   16   17 2
    27   16   18 1
    28   18   26 1
    29   18   27 1
@<TRIPOS>MOLECULE
ZINC39521343
   43    45     0     0     0
SMALL
USER_CHARGES

@<TRIPOS>ATOM
      1 C1          0.0342    1.3809   -0.3467 C.ar      1 <0>        -0.1144
      2 C2          1.1694    2.0888    0.0019 C.ar      1 <0>        -0.1231
      3 C3          2.3293    1.4181    0.3439 C.ar      1 <0>        -0.1373
      4 C4          2.3564    0.0334    0.3379 C.ar      1 <0>         0.0910
      5 C5          1.2130   -0.6808   -0.0132 C.ar      1 <0>         0.1952
      6 C6          0.0529   -0.0012   -0.3552 C.ar      1 <0>        -0.1316
      7 N1          1.2346   -2.0803   -0.0214 N.pl3     1 <0>        -0.6478
      8 C7          1.3625   -2.8349    1.2330 C.3       1 <0>         0.3591
      9 H1          2.3163   -3.3622    1.2466 H         1 <0>         0.0527
     10 C8          0.2152   -3.8462    1.3190 C.3       1 <0>        -0.1649
     11 C9          0.2120   -4.7170    0.0605 C.3       1 <0>        -0.1174
     12 C10        -0.0123   -3.8364   -1.1711 C.3       1 <0>        -0.1281
     13 C11         1.1239   -2.8232   -1.2831 C.3       1 <0>         0.2138
     14 C12         0.8303   -1.8491   -2.4242 C.3       1 <0>        -0.1237
     15 C13         1.9706   -0.8348   -2.5348 C.3       1 <0>        -0.1479
     16 C14         3.2829   -1.5704   -2.8130 C.3       1 <0>        -0.1446
     17 C15         3.5754   -2.5430   -1.6687 C.3       1 <0>         0.0902
     18 H2          3.6602   -1.9890   -0.7338 H         1 <0>         0.0953
     19 C16         2.4360   -3.5583   -1.5583 C.3       1 <0>        -0.1173
     20 O1          4.8015   -3.2294   -1.9285 O.3       1 <0>        -0.5748
     21 O2          1.2964   -1.9358    2.3418 O.3       1 <0>        -0.5722
     22 O3          3.4967   -0.6276    0.6737 O.3       1 <0>        -0.4885
     23 H3         -0.8707    1.9090   -0.6088 H         1 <0>         0.1227
     24 H4          1.1504    3.1687    0.0068 H         1 <0>         0.1235
     25 H5          3.2145    1.9742    0.6154 H         1 <0>         0.1256
     26 H6         -0.8353   -0.5518   -0.6275 H         1 <0>         0.1222
     27 H7          0.3514   -4.4770    2.1974 H         1 <0>         0.0705
     28 H8         -0.7333   -3.3147    1.3959 H         1 <0>         0.0741
     29 H9          1.1699   -5.2293   -0.0290 H         1 <0>         0.0672
     30 H10        -0.5883   -5.4537    0.1308 H         1 <0>         0.0673
     31 H11        -0.0349   -4.4598   -2.0649 H         1 <0>         0.0745
     32 H12        -0.9600   -3.3071   -1.0721 H         1 <0>         0.0691
     33 H13         0.7432   -2.4013   -3.3600 H         1 <0>         0.0745
     34 H14        -0.1040   -1.3249   -2.2233 H         1 <0>         0.0741
     35 H15         1.7627   -0.1419   -3.3502 H         1 <0>         0.0595
     36 H16         2.0559   -0.2806   -1.6001 H         1 <0>         0.0991
     37 H17         3.1977   -2.1245   -3.7478 H         1 <0>         0.0603
     38 H18         4.0950   -0.8476   -2.8919 H         1 <0>         0.0590
     39 H19         2.6433   -4.2499   -0.7418 H         1 <0>         0.0693
     40 H20         2.3523   -4.1136   -2.4926 H         1 <0>         0.0719
     41 H21         5.5688   -2.6465   -2.0108 H         1 <0>         0.3755
     42 H22         1.3744   -2.3676    3.2035 H         1 <0>         0.3928
     43 H23         3.5724   -0.8274    1.6168 H         1 <0>         0.3836
@<TRIPOS>BOND
     1    1    6 ar
     2    1    2 ar
     3    1   23 1
     4    2    3 ar
     5    2   24 1
     6    3    4 ar
     7    3   25 1
     8    4    5 ar
     9    4   22 1
    10    5    6 ar
    11    5    7 1
    12    6   26 1
    13    7   13 1
    14    7    8 1
    15    8    9 1
    16    8   10 1
    17    8   21 1
    18   10   11 1
    19   10   27 1
    20   10   28 1
    21   11   12 1
    22   11   29 1
    23   11   30 1
    24   12   13 1
    25   12   31 1
    26   12   32 1
    27   13   19 1
    28   13   14 1
    29   14   15 1
    30   14   33 1
    31   14   34 1
    32   15   16 1
    33   15   35 1
    34   15   36 1
    35   16   17 1
    36   16   37 1
    37   16   38 1
    38   17   18 1
    39   17   19 1
    40   17   20 1
    41   19   39 1
    42   19   40 1
    43   20   41 1
    44   21   42 1
    45   22   43 1
@<TRIPOS>MOLECULE
ZINC47633599
   44    45     0     0     0
SMALL
USER_CHARGES

@<TRIPOS>ATOM
      1 C1         -0.0187    1.5258    0.0104 C.3       1 <0>        -0.1479
      2 C2          0.0021   -0.0041    0.0020 C.3       1 <0>        -0.0884
      3 H1          0.5123   -0.3556   -0.8948 H         1 <0>         0.0733
      4 C3         -1.4333   -0.5336    0.0129 C.3       1 <0>        -0.1169
      5 C4         -1.4126   -2.0635    0.0045 C.3       1 <0>        -0.1179
      6 C5         -0.6726   -2.5703    1.2440 C.3       1 <0>        -0.1290
      7 C6          0.7628   -2.0407    1.2331 C.3       1 <0>         0.1639
      8 H2          1.2730   -2.3923    0.3363 H         1 <0>         0.0880
      9 C7          0.7421   -0.5109    1.2415 C.3       1 <0>        -0.1208
     10 N1          1.4714   -2.5260    2.4200 N.am      1 <0>        -0.7437
     11 C8          2.0564   -3.7401    2.4061 C.2       1 <0>         0.7041
     12 O1          1.9961   -4.4326    1.4085 O.2       1 <0>        -0.5868
     13 N2          2.7083   -4.1866    3.4980 N.am      1 <0>        -0.7443
     14 C9          3.3442   -5.5063    3.4829 C.3       1 <0>         0.1620
     15 C10         2.3102   -6.5748    3.8436 C.3       1 <0>        -0.1265
     16 C11         2.9744   -7.9531    3.8278 C.3       1 <0>        -0.1109
     17 C12         4.1144   -7.9816    4.8479 C.3       1 <0>         0.1030
     18 C13         5.1483   -6.9130    4.4872 C.3       1 <0>        -0.1485
     19 C14         4.4842   -5.5348    4.5029 C.3       1 <0>        -0.1238
     20 O2          4.7347   -9.2688    4.8331 O.3       1 <0>        -0.5673
     21 H3          1.0039    1.9031    0.0027 H         1 <0>         0.0550
     22 H4         -0.5459    1.8868   -0.8726 H         1 <0>         0.0571
     23 H5         -0.5289    1.8773    0.9072 H         1 <0>         0.0548
     24 H6         -1.9435   -0.1821    0.9097 H         1 <0>         0.0627
     25 H7         -1.9605   -0.1726   -0.8702 H         1 <0>         0.0645
     26 H8         -2.4352   -2.4408    0.0122 H         1 <0>         0.0653
     27 H9         -0.9024   -2.4150   -0.8923 H         1 <0>         0.0648
     28 H10        -1.1828   -2.2188    2.1408 H         1 <0>         0.0615
     29 H11        -0.6578   -3.6602    1.2380 H         1 <0>         0.0674
     30 H12         1.7647   -0.1336    1.2338 H         1 <0>         0.0682
     31 H13         0.2319   -0.1594    2.1383 H         1 <0>         0.0675
     32 H14         1.5195   -1.9736    3.2158 H         1 <0>         0.3942
     33 H15         2.7563   -3.6341    4.2938 H         1 <0>         0.3947
     34 H16         3.7418   -5.7067    2.4880 H         1 <0>         0.0907
     35 H17         1.9126   -6.3744    4.8385 H         1 <0>         0.0646
     36 H18         1.4981   -6.5545    3.1169 H         1 <0>         0.0758
     37 H19         2.2378   -8.7143    4.0848 H         1 <0>         0.0731
     38 H20         3.3720   -8.1534    2.8329 H         1 <0>         0.0733
     39 H21         3.7168   -7.7812    5.8428 H         1 <0>         0.0555
     40 H22         5.9605   -6.9333    5.2139 H         1 <0>         0.0708
     41 H23         5.5459   -7.1134    3.4922 H         1 <0>         0.0755
     42 H24         5.2208   -4.7736    4.2459 H         1 <0>         0.0733
     43 H25         4.0866   -5.3344    5.4979 H         1 <0>         0.0695
     44 H26         5.4679   -9.3592    5.4570 H         1 <0>         0.3784
@<TRIPOS>BOND
     1    1    2 1
     2    1   21 1
     3    1   22 1
     4    1   23 1
     5    2    3 1
     6    2    9 1
     7    2    4 1
     8    4    5 1
     9    4   24 1
    10    4   25 1
    11    5    6 1
    12    5   26 1
    13    5   27 1
    14    6    7 1
    15    6   28 1
    16    6   29 1
    17    7    8 1
    18    7    9 1
    19    7   10 1
    20    9   30 1
    21    9   31 1
    22   10   11 am
    23   10   32 1
    24   11   12 2
    25   11   13 am
    26   13   14 1
    27   13   33 1
    28   14   19 1
    29   14   15 1
    30   14   34 1
    31   15   16 1
    32   15   35 1
    33   15   36 1
    34   16   17 1
    35   16   37 1
    36   16   38 1
    37   17   18 1
    38   17   20 1
    39   17   39 1
    40   18   19 1
    41   18   40 1
    42   18   41 1
    43   19   42 1
    44   19   43 1
    45   20   44 1
@<TRIPOS>MOLECULE
ZINC54599737
   38    40     0     0     0
SMALL
USER_CHARGES

@<TRIPOS>ATOM
      1 C1         -0.0184    1.5028    0.0103 C.3       1 <0>        -0.1163
      2 C2          0.0021   -0.0041    0.0020 C.ar      1 <0>        -0.0830
      3 C3          0.0057   -0.6865   -1.2011 C.ar      1 <0>        -0.1239
      4 C4          0.0239   -2.0666   -1.2145 C.ar      1 <0>        -0.0884
      5 C5          0.0392   -2.7722   -0.0132 C.ar      1 <0>        -0.0132
      6 C6          0.0359   -2.0797    1.1957 C.ar      1 <0>        -0.0923
      7 C7          0.0229   -0.6995    1.1975 C.ar      1 <0>        -0.1231
      8 C8          0.0583   -4.2563   -0.0214 C.2       1 <0>         0.1278
      9 C9          0.0692   -5.0882    1.1138 C.2       1 <0>        -0.3307
     10 C10         0.0853   -6.3777    0.6833 C.2       1 <0>         0.3573
     11 N1          0.0846   -6.3596   -0.6753 N.pl3     1 <0>        -0.3715
     12 N2          0.0623   -5.0225   -1.0913 N.2       1 <0>        -0.2574
     13 C11         0.0997   -7.5335   -1.5516 C.3       1 <0>         0.1696
     14 H1          0.1245   -8.4449   -0.9541 H         1 <0>         0.0990
     15 C12         1.3267   -7.4802   -2.4852 C.3       1 <0>        -0.1326
     16 C13         0.8072   -8.0509   -3.8281 C.3       1 <0>        -0.1207
     17 C14        -0.6283   -7.4751   -3.9118 C.3       1 <0>        -0.1557
     18 C15        -1.1439   -7.5310   -2.4578 C.3       1 <0>         0.0929
     19 H2         -1.7223   -8.4414   -2.3007 H         1 <0>         0.0631
     20 O1         -1.9499   -6.3843   -2.1795 O.3       1 <0>        -0.5384
     21 N3          0.1003   -7.5125    1.4896 N.pl3     1 <0>        -0.8606
     22 H3          1.0042    1.8801    0.0026 H         1 <0>         0.0705
     23 H4         -0.5455    1.8639   -0.8728 H         1 <0>         0.0661
     24 H5         -0.5286    1.8543    0.9071 H         1 <0>         0.0662
     25 H6         -0.0062   -0.1386   -2.1317 H         1 <0>         0.1227
     26 H7          0.0260   -2.5985   -2.1544 H         1 <0>         0.1277
     27 H8          0.0474   -2.6218    2.1297 H         1 <0>         0.1256
     28 H9          0.0244   -0.1616    2.1340 H         1 <0>         0.1238
     29 H10         0.0654   -4.7607    2.1430 H         1 <0>         0.1416
     30 H11         1.6645   -6.4518   -2.6129 H         1 <0>         0.0885
     31 H12         2.1319   -8.1013   -2.0928 H         1 <0>         0.0748
     32 H13         1.4151   -7.6952   -4.6600 H         1 <0>         0.0771
     33 H14         0.7855   -9.1404   -3.8023 H         1 <0>         0.0720
     34 H15        -0.6062   -6.4459   -4.2699 H         1 <0>         0.0834
     35 H16        -1.2498   -8.0925   -4.5604 H         1 <0>         0.0717
     36 H17        -2.7501   -6.3255   -2.7193 H         1 <0>         0.3752
     37 H18         0.0994   -7.4214    2.4553 H         1 <0>         0.4158
     38 H19         0.1115   -8.3943    1.0857 H         1 <0>         0.3953
@<TRIPOS>BOND
     1    1    2 1
     2    1   22 1
     3    1   23 1
     4    1   24 1
     5    2    7 ar
     6    2    3 ar
     7    3    4 ar
     8    3   25 1
     9    4    5 ar
    10    4   26 1
    11    5    6 ar
    12    5    8 1
    13    6    7 ar
    14    6   27 1
    15    7   28 1
    16    8   12 2
    17    8    9 1
    18    9   10 2
    19    9   29 1
    20   10   11 1
    21   10   21 1
    22   11   12 1
    23   11   13 1
    24   13   14 1
    25   13   18 1
    26   13   15 1
    27   15   16 1
    28   15   30 1
    29   15   31 1
    30   16   17 1
    31   16   32 1
    32   16   33 1
    33   17   18 1
    34   17   34 1
    35   17   35 1
    36   18   19 1
    37   18   20 1
    38   20   36 1
    39   21   37 1
    40   21   38 1
@<TRIPOS>MOLECULE
ZINC61709392
   29    31     0     0     0
SMALL
USER_CHARGES

@<TRIPOS>ATOM
      1 C1         -0.0168    1.3869    0.0097 C.ar      1 <0>        -0.0397
      2 C2          1.1773    2.0850    0.0020 C.ar      1 <0>        -0.1251
      3 C3          2.3668    1.3976   -0.0130 C.ar      1 <0>        -0.1131
      4 C4          2.4285   -0.0135   -0.0212 C.ar      1 <0>         0.0031
      5 C5          1.1946   -0.7050   -0.0127 C.ar      1 <0>         0.2822
      6 C6          0.0021   -0.0041    0.0020 C.ar      1 <0>         0.0979
      7 N1         -1.2115   -0.7095    0.0103 N.pl3     1 <0>        -0.6734
      8 C7         -1.9456   -1.1421    1.2133 C.3       1 <0>         0.1309
      9 C8         -3.4167   -1.2859    0.7498 C.3       1 <0>        -0.1676
     10 C9         -3.2377   -1.8506   -0.6842 C.3       1 <0>         0.0924
     11 H1         -3.0913   -2.9304   -0.6579 H         1 <0>         0.0708
     12 C10        -1.9641   -1.1337   -1.1793 C.3       1 <0>         0.1368
     13 O1         -4.3590   -1.5141   -1.5037 O.3       1 <0>        -0.5604
     14 N2          1.1802   -2.1056   -0.0201 N.pl3     1 <0>        -0.8513
     15 N3          3.6892   -0.4952   -0.0362 N.2       1 <0>        -0.4965
     16 C11         4.7291    0.2859   -0.0423 C.2       1 <0>         0.0533
     17 S1          4.0848    1.8406   -0.0276 S.3       1 <0>         0.0785
     18 H2         -0.9571    1.9180    0.0260 H         1 <0>         0.1380
     19 H3          1.1746    3.1650    0.0075 H         1 <0>         0.1342
     20 H4         -1.5639   -2.1000    1.5667 H         1 <0>         0.0487
     21 H5         -1.8667   -0.3889    1.9972 H         1 <0>         0.0655
     22 H6         -3.9585   -1.9894    1.3820 H         1 <0>         0.0810
     23 H7         -3.9161   -0.3172    0.7287 H         1 <0>         0.0842
     24 H8         -2.2350   -0.2630   -1.7765 H         1 <0>         0.0636
     25 H9         -1.3617   -1.8206   -1.7737 H         1 <0>         0.0543
     26 H10        -5.1987   -1.8761   -1.1893 H         1 <0>         0.3837
     27 H11         2.0151   -2.5992   -0.0310 H         1 <0>         0.4063
     28 H12         0.3352   -2.5819   -0.0143 H         1 <0>         0.4021
     29 H13         5.7709    0.0011   -0.0541 H         1 <0>         0.2197
@<TRIPOS>BOND
     1    1    6 ar
     2    1    2 ar
     3    1   18 1
     4    2    3 ar
     5    2   19 1
     6    3   17 1
     7    3    4 ar
     8    4    5 ar
     9    4   15 1
    10    5    6 ar
    11    5   14 1
    12    6    7 1
    13    7   12 1
    14    7    8 1
    15    8    9 1
    16    8   20 1
    17    8   21 1
    18    9   10 1
    19    9   22 1
    20    9   23 1
    21   10   11 1
    22   10   12 1
    23   10   13 1
    24   12   24 1
    25   12   25 1
    26   13   26 1
    27   14   27 1
    28   14   28 1
    29   15   16 2
    30   16   17 1
    31   16   29 1
@<TRIPOS>MOLECULE
ZINC22996585
   31    33     0     0     0
SMALL
USER_CHARGES
2-(4-bromophenyl)imidazo[1,2-a]pyridine-8-carbohydrazide
@<TRIPOS>ATOM
      1 C1         -3.6733   -1.2012    0.0134 C.2       1 <0>        -0.1580
      2 C2         -2.4538   -0.5190    0.0109 C.2       1 <0>        -0.0531
      3 C3         -2.4520    0.8705    0.0184 C.2       1 <0>        -0.0854
      4 C4         -3.7421    1.5671    0.0345 C.2       1 <0>         0.2583
      5 N1         -4.0639    2.8461    0.0374 N.2       1 <0>        -0.4443
      6 C5         -5.4035    2.9632    0.0449 C.2       1 <0>         0.0913
      7 C6         -5.9412    1.7130    0.0409 C.2       1 <0>        -0.0707
      8 N2         -4.8980    0.8276    0.0308 N.pl3     1 <0>        -0.3702
      9 C7         -4.8477   -0.5334    0.0231 C.2       1 <0>         0.0913
     10 C8         -6.1647    4.2368    0.0561 C.ar      1 <0>         0.0029
     11 C9         -7.5582    4.2185    0.0579 C.ar      1 <0>        -0.0994
     12 C10        -8.2614    5.4057    0.0737 C.ar      1 <0>        -0.0908
     13 C11        -7.5852    6.6134    0.0767 C.ar      1 <0>        -0.0865
     14 C12        -6.2012    6.6371    0.0697 C.ar      1 <0>        -0.0902
     15 C13        -5.4887    5.4554    0.0592 C.ar      1 <0>        -0.0795
     16 Br1        -8.5553    8.2366    0.0899 Br        1 <0>        -0.0490
     17 C14        -1.1873    1.6238    0.0165 C.2       1 <0>         0.5623
     18 O1         -1.2038    2.8400    0.0232 O.2       1 <0>        -0.4891
     19 N3         -0.0111    0.9658    0.0074 N.am      1 <0>        -0.5947
     20 N4          1.1625    1.6649   -0.0001 N.3       1 <0>        -0.5740
     21 H1         -3.6770   -2.2812    0.0072 H         1 <0>         0.1606
     22 H2         -1.5226   -1.0658    0.0027 H         1 <0>         0.1478
     23 H3         -6.9927    1.4663    0.0447 H         1 <0>         0.1915
     24 H4         -5.7711   -1.0936    0.0252 H         1 <0>         0.1698
     25 H5         -8.0868    3.2767    0.0507 H         1 <0>         0.1333
     26 H6         -9.3413    5.3926    0.0796 H         1 <0>         0.1370
     27 H7         -5.6782    7.5820    0.0721 H         1 <0>         0.1372
     28 H8         -4.4089    5.4749    0.0530 H         1 <0>         0.1443
     29 H9          0.0039   -0.1341    0.0060 H         1 <0>         0.4132
     30 H10         2.0082    0.9615   -0.0069 H         1 <0>         0.3555
     31 H11         1.2058    2.2991   -0.8978 H         1 <0>         0.3386
@<TRIPOS>BOND
     1    1    9 2
     2    1    2 1
     3    1   21 1
     4    2    3 2
     5    2   22 1
     6    3    4 1
     7    3   17 1
     8    4    8 1
     9    4    5 2
    10    5    6 1
    11    6    7 2
    12    6   10 1
    13    7    8 1
    14    7   23 1
    15    8    9 1
    16    9   24 1
    17   10   15 ar
    18   10   11 ar
    19   11   12 ar
    20   11   25 1
    21   12   13 ar
    22   12   26 1
    23   13   14 ar
    24   13   16 1
    25   14   15 ar
    26   14   27 1
    27   15   28 1
    28   17   18 2
    29   17   19 am
    30   19   20 1
    31   19   29 1
    32   20   30 1
    33   20   31 1
@<TRIPOS>MOLECULE
ZINC40378769
   28    29     0     0     0
SMALL
USER_CHARGES

@<TRIPOS>ATOM
      1 C1         -0.0231    1.3658    0.0398 C.ar      1 <0>        -0.0290
      2 C2          1.1607    2.0808    0.0253 C.ar      1 <0>        -0.1060
      3 C3          2.3712    1.4149    0.0002 C.ar      1 <0>        -0.0181
      4 C4          2.3976    0.0251   -0.0105 C.ar      1 <0>         0.1445
      5 C5          1.2070   -0.6887    0.0042 C.ar      1 <0>        -0.0188
      6 C6          0.0003   -0.0164    0.0293 C.ar      1 <0>        -0.6540
      7 S1         -1.5111   -0.9221    0.0485 S.o2      1 <0>         2.7042
      8 O1         -1.2102   -2.2031    0.5849 O.2       1 <0>        -0.9550
      9 O2         -2.4899   -0.0666    0.6224 O.2       1 <0>        -0.9552
     10 N1         -1.9581   -1.1621   -1.5279 N.pl3     1 <0>        -1.2447
     11 N2          3.6213   -0.6529   -0.0363 N.am      1 <0>        -0.6661
     12 C7          3.6891   -1.9022   -0.5374 C.2       1 <0>         0.5794
     13 O3          2.7103   -2.4025   -1.0583 O.2       1 <0>        -0.5101
     14 C8          4.9473   -2.6611   -0.4543 C.2       1 <0>        -0.1903
     15 C9          5.0591   -3.9985   -0.9844 C.2       1 <0>        -0.1021
     16 C10         6.2651   -4.5847   -0.8449 C.2       1 <0>        -0.2080
     17 S2          7.2246   -3.3400   -0.0097 S.3       1 <0>         0.2117
     18 C11         6.0746   -2.1261    0.1279 C.2       1 <0>        -0.2130
     19 Cl1         3.8570    2.3126   -0.0187 Cl        1 <0>        -0.0473
     20 H1         -0.9679    1.8885    0.0640 H         1 <0>         0.1562
     21 H2          1.1390    3.1606    0.0332 H         1 <0>         0.1521
     22 H3          1.2241   -1.7685   -0.0043 H         1 <0>         0.1750
     23 H4         -2.4656   -1.9514   -1.7733 H         1 <0>         0.4237
     24 H5         -1.7124   -0.5133   -2.2058 H         1 <0>         0.4179
     25 H6          4.4209   -0.2237    0.3063 H         1 <0>         0.4141
     26 H7          4.2294   -4.4982   -1.4621 H         1 <0>         0.1550
     27 H8          6.5736   -5.5698   -1.1623 H         1 <0>         0.1945
     28 H9          6.1914   -1.1489    0.5727 H         1 <0>         0.1889
@<TRIPOS>BOND
     1    1    6 ar
     2    1    2 ar
     3    1   20 1
     4    2    3 ar
     5    2   21 1
     6    3    4 ar
     7    3   19 1
     8    4    5 ar
     9    4   11 1
    10    5    6 ar
    11    5   22 1
    12    6    7 1
    13    7    8 2
    14    7    9 2
    15    7   10 1
    16   10   23 1
    17   10   24 1
    18   11   12 am
    19   11   25 1
    20   12   13 2
    21   12   14 1
    22   14   18 2
    23   14   15 1
    24   15   16 2
    25   15   26 1
    26   16   17 1
    27   16   27 1
    28   17   18 1
    29   18   28 1
@<TRIPOS>MOLECULE
ZINC51151381
   36    39     0     0     0
SMALL
USER_CHARGES

@<TRIPOS>ATOM
      1 C1         -0.0414    1.3912    0.3772 C.ar      1 <0>        -0.1232
      2 C2          1.1450    2.0759    0.5470 C.ar      1 <0>         0.0922
      3 N1          2.2855    1.4291    0.6900 N.ar      1 <0>        -0.4721
      4 C3          2.3486    0.1117    0.6780 C.ar      1 <0>         0.0915
      5 C4          1.2099   -0.6507    0.5133 C.ar      1 <0>        -0.1200
      6 C5         -0.0209   -0.0064    0.3582 C.ar      1 <0>        -0.0001
      7 C6         -1.2709   -0.7843    0.1789 C.ar      1 <0>         0.4163
      8 N2         -1.2168   -2.1124    0.1710 N.ar      1 <0>        -0.5500
      9 C7         -2.2961   -2.8581    0.0143 C.ar      1 <0>         0.4916
     10 C8         -3.5607   -2.2249   -0.1523 C.ar      1 <0>        -0.2376
     11 C9         -4.8738   -2.8413   -0.3425 C.2       1 <0>        -0.0855
     12 C10        -5.9274   -2.0091   -0.4761 C.2       1 <0>        -0.1437
     13 S1         -5.2459   -0.3767   -0.3584 S.3       1 <0>         0.1229
     14 C11        -3.5419   -0.8145   -0.1317 C.ar      1 <0>         0.1501
     15 N3         -2.4224   -0.1415    0.0348 N.ar      1 <0>        -0.5038
     16 C12        -7.3627   -2.3879   -0.6808 C.3       1 <0>        -0.0417
     17 C13        -7.4198   -3.8664   -1.0908 C.3       1 <0>        -0.1154
     18 C14        -6.5379   -4.6750   -0.1348 C.3       1 <0>        -0.1197
     19 C15        -5.0648   -4.3548   -0.3911 C.3       1 <0>        -0.0718
     20 N4         -2.1987   -4.2381    0.0117 N.pl3     1 <0>        -0.5572
     21 N5         -1.0779   -4.8447    0.5033 N.3       1 <0>        -0.5974
     22 H1         -0.9723    1.9272    0.2651 H         1 <0>         0.1489
     23 H2          1.1393    3.1558    0.5627 H         1 <0>         0.1627
     24 H3          3.3042   -0.3771    0.7982 H         1 <0>         0.1624
     25 H4          1.2689   -1.7290    0.5041 H         1 <0>         0.1511
     26 H5         -7.9167   -2.2425    0.2466 H         1 <0>         0.0891
     27 H6         -7.7963   -1.7716   -1.4684 H         1 <0>         0.0880
     28 H7         -8.4480   -4.2233   -1.0300 H         1 <0>         0.0793
     29 H8         -7.0514   -3.9776   -2.1106 H         1 <0>         0.0710
     30 H9         -6.7906   -4.4198    0.8943 H         1 <0>         0.0698
     31 H10        -6.7104   -5.7392   -0.2956 H         1 <0>         0.0742
     32 H11        -4.7749   -4.7281   -1.3732 H         1 <0>         0.0824
     33 H12        -4.4504   -4.8253    0.3765 H         1 <0>         0.0723
     34 H13        -2.9264   -4.7750   -0.3393 H         1 <0>         0.4162
     35 H14        -0.8994   -4.5584    1.4543 H         1 <0>         0.3467
     36 H15        -1.1509   -5.8488    0.4357 H         1 <0>         0.3606
@<TRIPOS>BOND
     1    1    6 ar
     2    1    2 ar
     3    1   22 1
     4    2    3 ar
     5    2   23 1
     6    3    4 ar
     7    4    5 ar
     8    4   24 1
     9    5    6 ar
    10    5   25 1
    11    6    7 1
    12    7   15 ar
    13    7    8 ar
    14    8    9 ar
    15    9   10 ar
    16    9   20 1
    17   10   14 ar
    18   10   11 1
    19   11   19 1
    20   11   12 2
    21   12   13 1
    22   12   16 1
    23   13   14 1
    24   14   15 ar
    25   16   17 1
    26   16   26 1
    27   16   27 1
    28   17   18 1
    29   17   28 1
    30   17   29 1
    31   18   19 1
    32   18   30 1
    33   18   31 1
    34   19   32 1
    35   19   33 1
    36   20   21 1
    37   20   34 1
    38   21   35 1
    39   21   36 1
@<TRIPOS>MOLECULE
ZINC54396367
   27    28     0     0     0
SMALL
USER_CHARGES

@<TRIPOS>ATOM
      1 C1          0.5929    0.3586   -1.1978 C.ar      1 <0>        -0.0487
      2 C2          1.7787    1.0662   -1.1984 C.ar      1 <0>        -0.0996
      3 C3          2.3800    1.4125   -0.0012 C.ar      1 <0>        -0.0583
      4 C4          1.7954    1.0512    1.1999 C.ar      1 <0>        -0.1002
      5 C5          0.6097    0.3436    1.2070 C.ar      1 <0>        -0.0492
      6 C6          0.0036   -0.0057    0.0065 C.ar      1 <0>        -0.1270
      7 S1         -1.5098   -0.9081    0.0114 S.3       1 <0>         0.0790
      8 C7         -1.0047   -2.5883   -0.1512 C.ar      1 <0>         0.0785
      9 C8         -1.9652   -3.6039   -0.2923 C.ar      1 <0>         0.0998
     10 N1         -1.5730   -4.8676   -0.4147 N.ar      1 <0>        -0.3932
     11 C9         -0.2866   -5.1634   -0.4033 C.ar      1 <0>         0.0442
     12 C10         0.6601   -4.1626   -0.2638 C.ar      1 <0>         0.0813
     13 N2          0.2852   -2.9004   -0.1466 N.ar      1 <0>        -0.4353
     14 C11        -3.4055   -3.2683   -0.3041 C.2       1 <0>         0.4312
     15 N3         -4.0241   -3.0957   -1.4358 N.2       1 <0>        -0.3911
     16 O1         -3.2979   -3.1238   -2.6511 O.3       1 <0>        -0.4018
     17 N4         -4.0961   -3.1377    0.8898 N.pl3     1 <0>        -0.8202
     18 Br1         4.0041    2.3811   -0.0064 Br        1 <0>        -0.0382
     19 H1          0.1218    0.0924   -2.1325 H         1 <0>         0.1385
     20 H2          2.2375    1.3493   -2.1342 H         1 <0>         0.1406
     21 H3          2.2672    1.3226    2.1327 H         1 <0>         0.1411
     22 H4          0.1541    0.0615    2.1447 H         1 <0>         0.1404
     23 H5          0.0291   -6.1914   -0.5029 H         1 <0>         0.1798
     24 H6          1.7103   -4.4141   -0.2549 H         1 <0>         0.1785
     25 H7         -3.8282   -2.9109   -3.4311 H         1 <0>         0.4023
     26 H8         -3.6349   -3.2663    1.7334 H         1 <0>         0.4138
     27 H9         -5.0407   -2.9175    0.8821 H         1 <0>         0.4140
@<TRIPOS>BOND
     1    1    6 ar
     2    1    2 ar
     3    1   19 1
     4    2    3 ar
     5    2   20 1
     6    3    4 ar
     7    3   18 1
     8    4    5 ar
     9    4   21 1
    10    5    6 ar
    11    5   22 1
    12    6    7 1
    13    7    8 1
    14    8   13 ar
    15    8    9 ar
    16    9   10 ar
    17    9   14 1
    18   10   11 ar
    19   11   12 ar
    20   11   23 1
    21   12   13 ar
    22   12   24 1
    23   14   15 2
    24   14   17 1
    25   15   16 1
    26   16   25 1
    27   17   26 1
    28   17   27 1
@<TRIPOS>MOLECULE
ZINC46938548
   45    47     0     0     0
SMALL
USER_CHARGES

@<TRIPOS>ATOM
      1 C1          2.5352   -4.3392    1.7960 C.ar      1 <0>        -0.1173
      2 C2          2.6254   -3.1709    2.5299 C.ar      1 <0>        -0.1211
      3 C3          3.0185   -2.0023    1.9115 C.ar      1 <0>        -0.1183
      4 C4          3.3262   -1.9893    0.5570 C.ar      1 <0>        -0.0727
      5 C5          3.2414   -3.1536   -0.1726 C.ar      1 <0>        -0.0707
      6 C6          2.8418   -4.3287    0.4512 C.ar      1 <0>        -0.1218
      7 C7          3.5752   -3.2168   -1.6401 C.3       1 <0>        -0.0831
      8 C8          3.5693   -1.8180   -2.2532 C.3       1 <0>        -0.1197
      9 C9          4.4491   -0.9071   -1.3891 C.3       1 <0>        -0.1142
     10 C10         3.7408   -0.6771   -0.0556 C.3       1 <0>        -0.0571
     11 H1          2.8562   -0.0617   -0.2198 H         1 <0>         0.0884
     12 C11         4.6890    0.0490    0.9008 C.3       1 <0>         0.1436
     13 N1          5.0250    1.3643    0.3502 N.am      1 <0>        -0.7416
     14 C12         5.9327    2.1431    0.9717 C.2       1 <0>         0.7236
     15 O1          6.4726    1.7540    1.9892 O.2       1 <0>        -0.5843
     16 N2          6.2418    3.3532    0.4652 N.am      1 <0>        -0.6369
     17 C13         5.6612    3.9491   -0.7519 C.3       1 <0>         0.0968
     18 C14         5.8320    5.4774   -0.5655 C.3       1 <0>        -0.1127
     19 C15         7.2131    5.5531    0.1373 C.3       1 <0>        -0.1276
     20 H2          8.0207    5.5047   -0.5931 H         1 <0>         0.1153
     21 C16         7.2091    4.3004    1.0385 C.3       1 <0>         0.1404
     22 C17         7.3213    6.8068    0.9666 C.2       1 <0>         0.5292
     23 O2          6.3938    7.5869    1.0102 O.2       1 <0>        -0.5350
     24 N3          8.4489    7.0610    1.6598 N.am      1 <0>        -0.8528
     25 H3          2.2301   -5.2578    2.2751 H         1 <0>         0.1222
     26 H4          2.3885   -3.1732    3.5836 H         1 <0>         0.1227
     27 H5          3.0872   -1.0897    2.4851 H         1 <0>         0.1239
     28 H6          2.7703   -5.2415   -0.1215 H         1 <0>         0.1212
     29 H7          4.5631   -3.6599   -1.7651 H         1 <0>         0.0770
     30 H8          2.8371   -3.8359   -2.1502 H         1 <0>         0.0754
     31 H9          3.9685   -1.8598   -3.2667 H         1 <0>         0.0704
     32 H10         2.5506   -1.4311   -2.2751 H         1 <0>         0.0668
     33 H11         5.4130   -1.3852   -1.2150 H         1 <0>         0.0701
     34 H12         4.5980    0.0469   -1.8949 H         1 <0>         0.0668
     35 H13         4.2036    0.1734    1.8688 H         1 <0>         0.0697
     36 H14         5.5999   -0.5369    1.0237 H         1 <0>         0.0732
     37 H15         4.5943    1.6748   -0.4615 H         1 <0>         0.3961
     38 H16         6.2035    3.6117   -1.6352 H         1 <0>         0.0734
     39 H17         4.6050    3.6925   -0.8332 H         1 <0>         0.0775
     40 H18         5.8549    5.9882   -1.5281 H         1 <0>         0.0927
     41 H19         5.0464    5.8834    0.0718 H         1 <0>         0.0931
     42 H20         6.9082    4.5705    2.0507 H         1 <0>         0.0720
     43 H21         8.2029    3.8527    1.0520 H         1 <0>         0.0771
     44 H22         9.1907    6.4370    1.6249 H         1 <0>         0.4036
     45 H23         8.5186    7.8679    2.1935 H         1 <0>         0.4048
@<TRIPOS>BOND
     1    1    6 ar
     2    1    2 ar
     3    1   25 1
     4    2    3 ar
     5    2   26 1
     6    3    4 ar
     7    3   27 1
     8    4   10 1
     9    4    5 ar
    10    5    6 ar
    11    5    7 1
    12    6   28 1
    13    7    8 1
    14    7   29 1
    15    7   30 1
    16    8    9 1
    17    8   31 1
    18    8   32 1
    19    9   10 1
    20    9   33 1
    21    9   34 1
    22   10   11 1
    23   10   12 1
    24   12   13 1
    25   12   35 1
    26   12   36 1
    27   13   14 am
    28   13   37 1
    29   14   15 2
    30   14   16 am
    31   16   21 1
    32   16   17 1
    33   17   18 1
    34   17   38 1
    35   17   39 1
    36   18   19 1
    37   18   40 1
    38   18   41 1
    39   19   20 1
    40   19   21 1
    41   19   22 1
    42   21   42 1
    43   21   43 1
    44   22   23 2
    45   22   24 am
    46   24   44 1
    47   24   45 1
@<TRIPOS>MOLECULE
ZINC36737146
   35    37     0     0     0
SMALL
USER_CHARGES

@<TRIPOS>ATOM
      1 C1          0.0308    1.5035    0.0087 C.3       1 <0>        -0.1160
      2 C2          0.0392   -0.0035    0.0008 C.ar      1 <0>        -0.0802
      3 C3          0.0395   -0.6861   -1.2019 C.ar      1 <0>        -0.1115
      4 C4          0.0472   -2.0656   -1.2170 C.ar      1 <0>        -0.0911
      5 C5          0.0546   -2.7761   -0.0152 C.ar      1 <0>        -0.1274
      6 C6          0.0543   -2.0862    1.1972 C.ar      1 <0>        -0.0773
      7 C7          0.0523   -0.7012    1.2007 C.ar      1 <0>         0.0990
      8 O1          0.0575   -0.0250    2.3797 O.3       1 <0>        -0.4903
      9 C8          0.0624   -4.2544   -0.0275 C.2       1 <0>         0.5599
     10 O2          0.0688   -4.8709    1.0203 O.2       1 <0>        -0.5091
     11 N1          0.0622   -4.9185   -1.2002 N.am      1 <0>        -0.6572
     12 C9          0.1866   -6.3153   -1.2150 C.ar      1 <0>         0.0805
     13 C10         0.8059   -6.9685   -0.1594 C.ar      1 <0>        -0.0641
     14 C11         0.9291   -8.3481   -0.1734 C.ar      1 <0>        -0.0023
     15 C12         0.4310   -9.0810   -1.2478 C.ar      1 <0>         0.0682
     16 C13        -0.1879   -8.4300   -2.3029 C.ar      1 <0>        -0.1600
     17 C14        -0.3171   -7.0492   -2.2876 C.ar      1 <0>         0.2068
     18 N2         -0.9483   -6.3920   -3.3522 N.pl3     1 <0>        -0.8725
     19 O3          0.6758  -10.4059   -1.0229 O.3       1 <0>        -0.3084
     20 C15         1.6883  -10.4418    0.0001 C.3       1 <0>         0.2141
     21 O4          1.4860   -9.2142    0.7247 O.3       1 <0>        -0.3067
     22 H1          1.0564    1.8726    0.0028 H         1 <0>         0.0787
     23 H2         -0.4918    1.8686   -0.8754 H         1 <0>         0.0709
     24 H3         -0.4782    1.8593    0.9045 H         1 <0>         0.0721
     25 H4          0.0334   -0.1375   -2.1322 H         1 <0>         0.1365
     26 H5          0.0471   -2.5956   -2.1581 H         1 <0>         0.1276
     27 H6          0.0600   -2.6303    2.1301 H         1 <0>         0.1454
     28 H7         -0.8243    0.1657    2.7276 H         1 <0>         0.3927
     29 H8         -0.0238   -4.4304   -2.0341 H         1 <0>         0.4068
     30 H9          1.1928   -6.4007    0.6739 H         1 <0>         0.1588
     31 H10        -0.5738   -8.9988   -3.1359 H         1 <0>         0.1403
     32 H11        -1.0349   -5.4259   -3.3430 H         1 <0>         0.3955
     33 H12        -1.2987   -6.9032   -4.0984 H         1 <0>         0.4055
     34 H13         1.5417  -11.3013    0.6541 H         1 <0>         0.1313
     35 H14         2.6827  -10.4638   -0.4459 H         1 <0>         0.0838
@<TRIPOS>BOND
     1    1    2 1
     2    1   22 1
     3    1   23 1
     4    1   24 1
     5    2    7 ar
     6    2    3 ar
     7    3    4 ar
     8    3   25 1
     9    4    5 ar
    10    4   26 1
    11    5    6 ar
    12    5    9 1
    13    6    7 ar
    14    6   27 1
    15    7    8 1
    16    8   28 1
    17    9   10 2
    18    9   11 am
    19   11   12 1
    20   11   29 1
    21   12   17 ar
    22   12   13 ar
    23   13   14 ar
    24   13   30 1
    25   14   21 1
    26   14   15 ar
    27   15   16 ar
    28   15   19 1
    29   16   17 ar
    30   16   31 1
    31   17   18 1
    32   18   32 1
    33   18   33 1
    34   19   20 1
    35   20   21 1
    36   20   34 1
    37   20   35 1
@<TRIPOS>MOLECULE
ZINC40369114
   32    33     0     0     0
SMALL
USER_CHARGES

@<TRIPOS>ATOM
      1 C1         -0.0187    1.2824   -0.3393 C.ar      1 <0>        -0.1056
      2 C2          1.0666    2.1181   -0.1671 C.ar      1 <0>        -0.0767
      3 C3          2.3094    1.5860    0.1762 C.ar      1 <0>        -0.0813
      4 C4          2.4509    0.2097    0.3447 C.ar      1 <0>        -0.1181
      5 C5          1.3554   -0.6219    0.1702 C.ar      1 <0>         0.1363
      6 C6          0.1211   -0.0822   -0.1723 C.ar      1 <0>        -0.0985
      7 N1          1.4924   -2.0038    0.3378 N.am      1 <0>        -0.6685
      8 C7          0.4913   -2.7183    0.8888 C.2       1 <0>         0.5610
      9 O1         -0.5622   -2.1772    1.1631 O.2       1 <0>        -0.5092
     10 C8          0.6742   -4.1594    1.1594 C.ar      1 <0>        -0.1236
     11 C9          1.8850   -4.7825    0.8509 C.ar      1 <0>        -0.0797
     12 C10         2.0497   -6.1276    1.1063 C.ar      1 <0>        -0.0970
     13 C11         1.0171   -6.8603    1.6672 C.ar      1 <0>        -0.0650
     14 C12        -0.1861   -6.2481    1.9755 C.ar      1 <0>        -0.0966
     15 C13        -0.3611   -4.9023    1.7302 C.ar      1 <0>        -0.0492
     16 Br1         1.2510   -8.7046    2.0130 Br        1 <0>        -0.0355
     17 C14         3.4748    2.4804    0.3604 C.2       1 <0>         0.4173
     18 N2          3.5535    3.5923   -0.3096 N.2       1 <0>        -0.4209
     19 O2          2.5960    3.8849   -1.3109 O.3       1 <0>        -0.4028
     20 N3          4.4810    2.1330    1.2460 N.pl3     1 <0>        -0.8316
     21 H1         -0.9810    1.6968   -0.6010 H         1 <0>         0.1337
     22 H2          0.9533    3.1841   -0.2985 H         1 <0>         0.1416
     23 H3          3.4110   -0.2077    0.6102 H         1 <0>         0.1290
     24 H4         -0.7312   -0.7314   -0.3083 H         1 <0>         0.1416
     25 H5          2.3080   -2.4478    0.0575 H         1 <0>         0.4112
     26 H6          2.6907   -4.2122    0.4127 H         1 <0>         0.1358
     27 H7          2.9858   -6.6107    0.8680 H         1 <0>         0.1427
     28 H8         -0.9877   -6.8248    2.4128 H         1 <0>         0.1440
     29 H9         -1.2984   -4.4250    1.9751 H         1 <0>         0.1486
     30 H10         2.7367    4.7329   -1.7538 H         1 <0>         0.3971
     31 H11         4.4223    1.3037    1.7457 H         1 <0>         0.4115
     32 H12         5.2445    2.7189    1.3667 H         1 <0>         0.4086
@<TRIPOS>BOND
     1    1    6 ar
     2    1    2 ar
     3    1   21 1
     4    2    3 ar
     5    2   22 1
     6    3    4 ar
     7    3   17 1
     8    4    5 ar
     9    4   23 1
    10    5    6 ar
    11    5    7 1
    12    6   24 1
    13    7    8 am
    14    7   25 1
    15    8    9 2
    16    8   10 1
    17   10   15 ar
    18   10   11 ar
    19   11   12 ar
    20   11   26 1
    21   12   13 ar
    22   12   27 1
    23   13   14 ar
    24   13   16 1
    25   14   15 ar
    26   14   28 1
    27   15   29 1
    28   17   18 2
    29   17   20 1
    30   18   19 1
    31   19   30 1
    32   20   31 1
    33   20   32 1
@<TRIPOS>MOLECULE
ZINC43461219
   32    34     0     0     0
SMALL
USER_CHARGES

@<TRIPOS>ATOM
      1 C1         -0.0167    1.3795    0.0096 C.ar      1 <0>        -0.1029
      2 C2          1.1665    2.0885    0.0021 C.ar      1 <0>        -0.0502
      3 C3          2.3852    1.4068   -0.0131 C.ar      1 <0>        -0.1001
      4 C4          2.3967    0.0103   -0.0207 C.ar      1 <0>        -0.0873
      5 C5          1.2059   -0.6860   -0.0130 C.ar      1 <0>        -0.0922
      6 C6          0.0021   -0.0041    0.0020 C.ar      1 <0>        -0.0886
      7 C7         -1.2947   -0.7718    0.0107 C.3       1 <0>         0.1509
      8 N1         -1.7286   -1.0131   -1.3676 N.pl3     1 <0>        -0.4690
      9 C8         -2.5979   -0.2468   -2.0854 C.2       1 <0>         0.2522
     10 N2         -2.7579   -0.7512   -3.2744 N.2       1 <0>        -0.4612
     11 C9         -2.0037   -1.8701   -3.3949 C.ar      1 <0>        -0.1127
     12 C10        -1.3299   -2.0485   -2.1746 C.ar      1 <0>         0.3055
     13 N3         -0.5111   -3.0858   -2.0347 N.ar      1 <0>        -0.5597
     14 C11        -0.3289   -3.9351   -3.0239 C.ar      1 <0>         0.3648
     15 N4         -0.9369   -3.8070   -4.1890 N.ar      1 <0>        -0.5935
     16 C12        -1.7805   -2.8059   -4.4189 C.ar      1 <0>         0.5094
     17 N5         -2.4122   -2.6794   -5.6437 N.pl3     1 <0>        -0.8172
     18 C13         3.6555    2.1588   -0.0217 C.2       1 <0>         0.3919
     19 S1          3.7817    3.6357    0.8349 S.2       1 <0>        -0.5441
     20 N6          4.7159    1.6827   -0.7039 N.pl3     1 <0>        -0.7598
     21 H1         -0.9598    1.9054    0.0260 H         1 <0>         0.1372
     22 H2          1.1504    3.1684    0.0077 H         1 <0>         0.1478
     23 H3          3.3356   -0.5232   -0.0328 H         1 <0>         0.1295
     24 H4          1.2133   -1.7660   -0.0192 H         1 <0>         0.1403
     25 H5         -1.1489   -1.7254    0.5180 H         1 <0>         0.1090
     26 H6         -2.0556   -0.1938    0.5352 H         1 <0>         0.1133
     27 H7         -3.0826    0.6468   -1.7211 H         1 <0>         0.2228
     28 H8          0.3434   -4.7675   -2.8772 H         1 <0>         0.2042
     29 H9         -3.0172   -1.9382   -5.8031 H         1 <0>         0.4193
     30 H10        -2.2500   -3.3320   -6.3427 H         1 <0>         0.4110
     31 H11         4.6444    0.8459   -1.1892 H         1 <0>         0.4043
     32 H12         5.5506    2.1769   -0.7095 H         1 <0>         0.4252
@<TRIPOS>BOND
     1    1    6 ar
     2    1    2 ar
     3    1   21 1
     4    2    3 ar
     5    2   22 1
     6    3    4 ar
     7    3   18 1
     8    4    5 ar
     9    4   23 1
    10    5    6 ar
    11    5   24 1
    12    6    7 1
    13    7    8 1
    14    7   25 1
    15    7   26 1
    16    8   12 1
    17    8    9 1
    18    9   10 2
    19    9   27 1
    20   10   11 1
    21   11   16 ar
    22   11   12 ar
    23   12   13 ar
    24   13   14 ar
    25   14   15 ar
    26   14   28 1
    27   15   16 ar
    28   16   17 1
    29   17   29 1
    30   17   30 1
    31   18   19 2
    32   18   20 1
    33   20   31 1
    34   20   32 1
@<TRIPOS>MOLECULE
ZINC51089847
   39    41     0     0     0
SMALL
USER_CHARGES

@<TRIPOS>ATOM
      1 C1         -0.0195    1.3725    0.0318 C.ar      1 <0>        -0.0995
      2 C2          1.1663    2.0786    0.0201 C.ar      1 <0>        -0.1371
      3 C3          2.3867    1.4152   -0.0066 C.ar      1 <0>        -0.0556
      4 C4          2.4154    0.0398   -0.0180 C.ar      1 <0>        -0.1046
      5 C5          1.2175   -0.6753   -0.0100 C.ar      1 <0>         0.1450
      6 C6          0.0025   -0.0082    0.0151 C.ar      1 <0>        -0.1324
      7 N1          1.2425   -2.0735   -0.0279 N.am      1 <0>        -0.6607
      8 C7          0.1894   -2.7602   -0.5135 C.2       1 <0>         0.5805
      9 O1         -0.7385   -2.1663   -1.0285 O.2       1 <0>        -0.5340
     10 C8          0.1622   -4.2310   -0.4204 C.ar      1 <0>        -0.2781
     11 C9          1.1699   -4.9206    0.2643 C.ar      1 <0>         0.0072
     12 C10         1.0983   -6.3008    0.3233 C.ar      1 <0>        -0.2475
     13 C11         0.0443   -6.9554   -0.2893 C.ar      1 <0>         0.1898
     14 N2         -0.8952   -6.2880   -0.9299 N.ar      1 <0>        -0.5308
     15 C12        -0.8788   -4.9664   -1.0123 C.ar      1 <0>         0.4619
     16 N3         -1.8884   -4.3069   -1.6889 N.pl3     1 <0>        -0.5452
     17 N4         -2.8444   -5.0208   -2.3539 N.3       1 <0>        -0.6022
     18 C13         3.7010   -0.7448   -0.0306 C.3       1 <0>        -0.0832
     19 C14         4.8667    0.1405   -0.4665 C.3       1 <0>        -0.1176
     20 C15         4.8499    1.4161    0.3838 C.3       1 <0>        -0.1207
     21 C16         3.6391    2.2521   -0.0258 C.3       1 <0>        -0.0812
     22 H1         -0.9624    1.8985    0.0583 H         1 <0>         0.1260
     23 H2          1.1453    3.1584    0.0316 H         1 <0>         0.1222
     24 H3         -0.9225   -0.5656    0.0219 H         1 <0>         0.1452
     25 H4          2.0178   -2.5491    0.3092 H         1 <0>         0.4108
     26 H5          1.9834   -4.3881    0.7345 H         1 <0>         0.1344
     27 H6          1.8597   -6.8632    0.8432 H         1 <0>         0.1408
     28 H7         -0.0097   -8.0330   -0.2420 H         1 <0>         0.1641
     29 H8         -1.9177   -3.3374   -1.6913 H         1 <0>         0.4281
     30 H9         -3.5110   -4.4068   -2.7974 H         1 <0>         0.3584
     31 H10        -2.4263   -5.6465   -3.0260 H         1 <0>         0.3440
     32 H11         3.8968   -1.1299    0.9701 H         1 <0>         0.0753
     33 H12         3.6054   -1.5803   -0.7241 H         1 <0>         0.0700
     34 H13         5.8070   -0.3896   -0.3146 H         1 <0>         0.0697
     35 H14         4.7570    0.3998   -1.5195 H         1 <0>         0.0667
     36 H15         4.7744    1.1531    1.4389 H         1 <0>         0.0664
     37 H16         5.7638    1.9845    0.2112 H         1 <0>         0.0696
     38 H17         3.7953    2.6422   -1.0315 H         1 <0>         0.0775
     39 H18         3.5257    3.0847    0.6684 H         1 <0>         0.0767
@<TRIPOS>BOND
     1    1    6 ar
     2    1    2 ar
     3    1   22 1
     4    2    3 ar
     5    2   23 1
     6    3   21 1
     7    3    4 ar
     8    4    5 ar
     9    4   18 1
    10    5    6 ar
    11    5    7 1
    12    6   24 1
    13    7    8 am
    14    7   25 1
    15    8    9 2
    16    8   10 1
    17   10   15 ar
    18   10   11 ar
    19   11   12 ar
    20   11   26 1
    21   12   13 ar
    22   12   27 1
    23   13   14 ar
    24   13   28 1
    25   14   15 ar
    26   15   16 1
    27   16   17 1
    28   16   29 1
    29   17   30 1
    30   17   31 1
    31   18   19 1
    32   18   32 1
    33   18   33 1
    34   19   20 1
    35   19   34 1
    36   19   35 1
    37   20   21 1
    38   20   36 1
    39   20   37 1
    40   21   38 1
    41   21   39 1
@<TRIPOS>MOLECULE
ZINC62361553
   37    38     0     0     0
SMALL
USER_CHARGES

@<TRIPOS>ATOM
      1 C1         -1.3173    3.0740    0.0698 C.2       1 <0>        -0.2288
      2 C2          0.0409    2.9761    0.2121 C.2       1 <0>        -0.0213
      3 N1          0.5200    1.7511    0.4504 N.2       1 <0>        -0.4738
      4 C3         -0.3249    0.7594    0.5283 C.2       1 <0>        -0.0227
      5 S1         -1.8180    1.4835    0.2744 S.3       1 <0>         0.2759
      6 C4          0.9224    4.1513    0.1082 C.2       1 <0>         0.5896
      7 O1          0.4481    5.2498   -0.1101 O.2       1 <0>        -0.5116
      8 N2          2.2546    4.0095    0.2550 N.am      1 <0>        -0.7130
      9 C5          3.1399    5.1597    0.0567 C.3       1 <0>         0.2096
     10 C6          2.7128    6.2899    1.0154 C.3       1 <0>        -0.1090
     11 C7          2.3657    5.6812    2.3471 C.3       1 <0>        -0.1214
     12 C8          3.5549    5.6888    3.3265 C.3       1 <0>        -0.1162
     13 C9          4.8870    5.3094    2.6518 C.3       1 <0>        -0.1205
     14 C10         4.7384    4.1636    1.6878 C.3       1 <0>        -0.1134
     15 C11         4.5159    4.7383    0.2738 C.3       1 <0>        -0.1315
     16 C12         2.9966    5.6461   -1.3625 C.2       1 <0>         0.3801
     17 N3          3.6098    6.7176   -1.7430 N.2       1 <0>        -0.4256
     18 O2          4.4560    7.4073   -0.8412 O.3       1 <0>        -0.4092
     19 N4          2.2121    4.9483   -2.2536 N.pl3     1 <0>        -0.8247
     20 H1         -1.9160    3.9524   -0.1211 H         1 <0>         0.2071
     21 H2         -0.1130   -0.2835    0.7123 H         1 <0>         0.2240
     22 H3          2.6272    3.1458    0.4920 H         1 <0>         0.4121
     23 H4          3.5343    6.9957    1.1384 H         1 <0>         0.0892
     24 H5          1.8418    6.8045    0.6098 H         1 <0>         0.0805
     25 H6          1.5422    6.2432    2.7878 H         1 <0>         0.0578
     26 H7          2.0439    4.6516    2.1911 H         1 <0>         0.0658
     27 H8          3.6500    6.6860    3.7563 H         1 <0>         0.0586
     28 H9          3.3533    4.9800    4.1297 H         1 <0>         0.0564
     29 H10         5.2688    6.1765    2.1128 H         1 <0>         0.0660
     30 H11         5.6059    5.0309    3.4224 H         1 <0>         0.0600
     31 H12         5.6438    3.5567    1.6980 H         1 <0>         0.0699
     32 H13         3.8819    3.5532    1.9738 H         1 <0>         0.0668
     33 H14         4.7718    3.9756   -0.4616 H         1 <0>         0.0660
     34 H15         5.1740    5.5959    0.1337 H         1 <0>         0.1022
     35 H16         4.8704    8.1965   -1.2161 H         1 <0>         0.3959
     36 H17         1.8506    4.0826   -2.0071 H         1 <0>         0.4052
     37 H18         2.0209    5.3226   -3.1279 H         1 <0>         0.4040
@<TRIPOS>BOND
     1    1    5 1
     2    1    2 2
     3    1   20 1
     4    2    3 1
     5    2    6 1
     6    3    4 2
     7    4    5 1
     8    4   21 1
     9    6    7 2
    10    6    8 am
    11    8    9 1
    12    8   22 1
    13    9   15 1
    14    9   10 1
    15    9   16 1
    16   10   11 1
    17   10   23 1
    18   10   24 1
    19   11   12 1
    20   11   25 1
    21   11   26 1
    22   12   13 1
    23   12   27 1
    24   12   28 1
    25   13   14 1
    26   13   29 1
    27   13   30 1
    28   14   15 1
    29   14   31 1
    30   14   32 1
    31   15   33 1
    32   15   34 1
    33   16   17 2
    34   16   19 1
    35   17   18 1
    36   18   35 1
    37   19   36 1
    38   19   37 1
@<TRIPOS>MOLECULE
ZINC12379053
   44    47     0     0     0
SMALL
USER_CHARGES
2-[[(1S,2R,4R)-norbornane-2-carbonyl]amino]-4,5,6,7-tetrahydrobenzothiophene-3-carboxamide
@<TRIPOS>ATOM
      1 C1          1.3822    2.0424   -0.0852 C.3       1 <0>        -0.1186
      2 C2          2.1936    1.3711   -1.1963 C.3       1 <0>        -0.1156
      3 C3          2.4123   -0.1036   -0.8280 C.3       1 <0>        -0.0354
      4 C4          1.0989   -0.6830   -0.4010 C.2       1 <0>        -0.2101
      5 C5         -0.0213   -0.0050   -0.0694 C.2       1 <0>        -0.0654
      6 C6         -1.1559   -0.8310    0.3068 C.2       1 <0>        -0.2314
      7 C7         -0.9809   -2.2075    0.2896 C.2       1 <0>         0.0743
      8 S1          0.6654   -2.3898   -0.2191 S.3       1 <0>         0.2293
      9 N1         -1.9003   -3.1969    0.6034 N.am      1 <0>        -0.6215
     10 C8         -1.5455   -4.4949    0.5280 C.2       1 <0>         0.5199
     11 O1         -0.4220   -4.7976    0.1856 O.2       1 <0>        -0.4927
     12 C9         -2.5447   -5.5703    0.8690 C.3       1 <0>        -0.1071
     13 H1         -3.1441   -5.2719    1.7291 H         1 <0>         0.0990
     14 C10        -1.8223   -6.9076    1.1502 C.3       1 <0>        -0.1099
     15 C11        -2.3714   -7.8874    0.0686 C.3       1 <0>        -0.1020
     16 H2         -2.2561   -8.9519    0.2725 H         1 <0>         0.1043
     17 C12        -1.7524   -7.3787   -1.2691 C.3       1 <0>        -0.1193
     18 C13        -2.4763   -6.0205   -1.5544 C.3       1 <0>        -0.1301
     19 C14        -3.4623   -5.8679   -0.3561 C.3       1 <0>        -0.0944
     20 H3         -4.2933   -5.1790   -0.5076 H         1 <0>         0.1042
     21 C15        -3.8441   -7.3643   -0.0758 C.3       1 <0>        -0.1210
     22 C16        -2.4383   -0.2324    0.6900 C.2       1 <0>         0.5850
     23 O2         -3.2840   -0.0116   -0.1570 O.2       1 <0>        -0.5333
     24 N2         -2.6806    0.0734    1.9800 N.am      1 <0>        -0.8486
     25 C17        -0.0547    1.5180   -0.1001 C.3       1 <0>        -0.0605
     26 H4          1.3758    3.1209   -0.2425 H         1 <0>         0.0702
     27 H5          1.8384    1.8211    0.8797 H         1 <0>         0.0667
     28 H6          3.1577    1.8694   -1.2969 H         1 <0>         0.0744
     29 H7          1.6468    1.4354   -2.1370 H         1 <0>         0.0686
     30 H8          3.1287   -0.1753   -0.0096 H         1 <0>         0.0825
     31 H9          2.7888   -0.6467   -1.6948 H         1 <0>         0.0809
     32 H10        -2.7988   -2.9548    0.8772 H         1 <0>         0.4186
     33 H11        -0.7444   -6.7873    1.0419 H         1 <0>         0.0890
     34 H12        -2.0667   -7.2687    2.1492 H         1 <0>         0.0723
     35 H13        -0.6809   -7.2149   -1.1540 H         1 <0>         0.0714
     36 H14        -1.9430   -8.0916   -2.0713 H         1 <0>         0.0637
     37 H15        -3.0257   -6.0732   -2.4943 H         1 <0>         0.0677
     38 H16        -1.7692   -5.1911   -1.5726 H         1 <0>         0.0677
     39 H17        -4.4099   -7.4754    0.8492 H         1 <0>         0.0735
     40 H18        -4.3599   -7.8198   -0.9211 H         1 <0>         0.0766
     41 H19        -2.0066   -0.1026    2.6550 H         1 <0>         0.4034
     42 H20        -3.5290    0.4694    2.2335 H         1 <0>         0.4031
     43 H21        -0.5570    1.8543   -1.0072 H         1 <0>         0.0789
     44 H22        -0.5884    1.8895    0.7747 H         1 <0>         0.0716
@<TRIPOS>BOND
     1    1   25 1
     2    1    2 1
     3    1   26 1
     4    1   27 1
     5    2    3 1
     6    2   28 1
     7    2   29 1
     8    3    4 1
     9    3   30 1
    10    3   31 1
    11    4    8 1
    12    4    5 2
    13    5    6 1
    14    5   25 1
    15    6    7 2
    16    6   22 1
    17    7    8 1
    18    7    9 1
    19    9   10 am
    20    9   32 1
    21   10   11 2
    22   10   12 1
    23   12   13 1
    24   12   19 1
    25   12   14 1
    26   14   15 1
    27   14   33 1
    28   14   34 1
    29   15   16 1
    30   15   21 1
    31   15   17 1
    32   17   18 1
    33   17   35 1
    34   17   36 1
    35   18   19 1
    36   18   37 1
    37   18   38 1
    38   19   20 1
    39   19   21 1
    40   21   39 1
    41   21   40 1
    42   22   23 2
    43   22   24 am
    44   24   41 1
    45   24   42 1
    46   25   43 1
    47   25   44 1
@<TRIPOS>MOLECULE
ZINC37201062
   39    41     0     0     0
SMALL
USER_CHARGES

@<TRIPOS>ATOM
      1 C1         -0.0166    1.3751    0.0096 C.ar      1 <0>        -0.1200
      2 C2          1.1740    2.0780    0.0020 C.ar      1 <0>        -0.1196
      3 C3          2.3723    1.3951   -0.0161 C.ar      1 <0>        -0.1183
      4 C4          2.3932    0.0062   -0.0252 C.ar      1 <0>        -0.0752
      5 C5          1.2079   -0.6937   -0.0125 C.ar      1 <0>        -0.0811
      6 C6          0.0021   -0.0041    0.0020 C.ar      1 <0>        -0.1187
      7 C7          1.1552   -2.1990   -0.0052 C.3       1 <0>        -0.0771
      8 C8          2.4928   -2.7856   -0.4516 C.3       1 <0>        -0.1264
      9 C9          3.6072   -2.1349    0.3764 C.3       1 <0>         0.1524
     10 H1          3.3546   -2.1851    1.4355 H         1 <0>         0.0849
     11 C10         3.7365   -0.6749   -0.0530 C.3       1 <0>        -0.0968
     12 N1          4.8721   -2.8343    0.1372 N.pl3     1 <0>        -0.7414
     13 C11         5.8804   -2.8039    1.1032 C.ar      1 <0>         0.2001
     14 C12         5.6833   -2.1157    2.2940 C.ar      1 <0>        -0.1410
     15 C13         6.6820   -2.0881    3.2471 C.ar      1 <0>        -0.0902
     16 C14         7.8777   -2.7441    3.0172 C.ar      1 <0>        -0.0781
     17 C15         8.0774   -3.4295    1.8331 C.ar      1 <0>        -0.6246
     18 C16         7.0802   -3.4663    0.8781 C.ar      1 <0>        -0.0977
     19 S1          9.6031   -4.2625    1.5450 S.o2      1 <0>         2.7005
     20 O1          9.7466   -4.3712    0.1355 O.2       1 <0>        -0.9643
     21 O2         10.5747   -3.6248    2.3627 O.2       1 <0>        -0.9623
     22 N2          9.4358   -5.8049    2.1241 N.pl3     1 <0>        -1.2498
     23 H2         -0.9580    1.9042    0.0259 H         1 <0>         0.1227
     24 H3          1.1658    3.1579    0.0099 H         1 <0>         0.1228
     25 H4          3.3019    1.9448   -0.0236 H         1 <0>         0.1207
     26 H5         -0.9284   -0.5523    0.0071 H         1 <0>         0.1217
     27 H6          0.9293   -2.5458    1.0032 H         1 <0>         0.0794
     28 H7          0.3711   -2.5345   -0.6840 H         1 <0>         0.0817
     29 H8          2.4944   -3.8631   -0.2867 H         1 <0>         0.0775
     30 H9          2.6510   -2.5755   -1.5094 H         1 <0>         0.0734
     31 H10         4.1404   -0.6321   -1.0645 H         1 <0>         0.0816
     32 H11         4.4151   -0.1592    0.6265 H         1 <0>         0.0773
     33 H12         5.0093   -3.3184   -0.6921 H         1 <0>         0.4037
     34 H13         4.7500   -1.6027    2.4738 H         1 <0>         0.1305
     35 H14         6.5294   -1.5534    4.1729 H         1 <0>         0.1335
     36 H15         8.6574   -2.7206    3.7642 H         1 <0>         0.1400
     37 H16         7.2350   -4.0059   -0.0446 H         1 <0>         0.1402
     38 H17         8.5991   -6.0831    2.5283 H         1 <0>         0.4169
     39 H18        10.1745   -6.4302    2.0589 H         1 <0>         0.4210
@<TRIPOS>BOND
     1    1    6 ar
     2    1    2 ar
     3    1   23 1
     4    2    3 ar
     5    2   24 1
     6    3    4 ar
     7    3   25 1
     8    4   11 1
     9    4    5 ar
    10    5    6 ar
    11    5    7 1
    12    6   26 1
    13    7    8 1
    14    7   27 1
    15    7   28 1
    16    8    9 1
    17    8   29 1
    18    8   30 1
    19    9   10 1
    20    9   11 1
    21    9   12 1
    22   11   31 1
    23   11   32 1
    24   12   13 1
    25   12   33 1
    26   13   18 ar
    27   13   14 ar
    28   14   15 ar
    29   14   34 1
    30   15   16 ar
    31   15   35 1
    32   16   17 ar
    33   16   36 1
    34   17   18 ar
    35   17   19 1
    36   18   37 1
    37   19   20 2
    38   19   21 2
    39   19   22 1
    40   22   38 1
    41   22   39 1
@<TRIPOS>MOLECULE
ZINC42420884
   39    40     0     0     0
SMALL
USER_CHARGES

@<TRIPOS>ATOM
      1 C1         -0.5055    1.4571   -0.5212 C.3       1 <0>         0.0885
      2 N1         -0.4856   -0.0078   -0.5293 N.am      1 <0>        -0.7338
      3 C2          0.5851   -0.6645   -1.0180 C.2       1 <0>         0.5050
      4 O1          1.5321   -0.0428   -1.4511 O.2       1 <0>        -0.5105
      5 C3          0.6055   -2.1713   -1.0263 C.3       1 <0>         0.1597
      6 H1         -0.4116   -2.5511   -0.9291 H         1 <0>         0.0716
      7 C4          1.4573   -2.6798    0.1411 C.3       1 <0>        -0.1254
      8 C5          1.5888   -4.2016    0.0465 C.3       1 <0>        -0.1135
      9 C6          2.2903   -4.5744   -1.2616 C.3       1 <0>        -0.1398
     10 C7          1.4480   -4.0874   -2.4449 C.3       1 <0>         0.1473
     11 N2          1.1914   -2.6491   -2.2861 N.pl3     1 <0>        -0.6579
     12 C8          1.5026   -1.7507   -3.3140 C.ar      1 <0>         0.1268
     13 C9          2.7589   -1.1666   -3.3703 C.ar      1 <0>        -0.0337
     14 C10         3.0643   -0.2800   -4.3865 C.ar      1 <0>        -0.1276
     15 C11         2.1200    0.0268   -5.3485 C.ar      1 <0>        -0.1351
     16 C12         0.8648   -0.5510   -5.3001 C.ar      1 <0>        -0.1536
     17 C13         0.5518   -1.4451   -4.2876 C.ar      1 <0>         0.2074
     18 N3         -0.7170   -2.0356   -4.2396 N.pl3     1 <0>        -0.8707
     19 C14         2.4596    0.9943   -6.4529 C.3       1 <0>         0.5074
     20 F1          3.7749    1.4429   -6.2918 F         1 <0>        -0.1769
     21 F2          2.3339    0.3529   -7.6898 F         1 <0>        -0.1786
     22 F3          1.5853    2.0853   -6.4024 F         1 <0>        -0.1785
     23 H2          0.3268    1.8285    0.0768 H         1 <0>         0.0602
     24 H3         -0.4129    1.8273   -1.5422 H         1 <0>         0.0597
     25 H4         -1.4450    1.8054   -0.0922 H         1 <0>         0.0751
     26 H5         -1.2430   -0.5050   -0.1829 H         1 <0>         0.4002
     27 H6          2.4470   -2.2255    0.0943 H         1 <0>         0.0747
     28 H7          0.9786   -2.4139    1.0836 H         1 <0>         0.0711
     29 H8          2.1739   -4.5687    0.8897 H         1 <0>         0.0672
     30 H9          0.5973   -4.6539    0.0685 H         1 <0>         0.0638
     31 H10         3.2722   -4.1022   -1.2952 H         1 <0>         0.0674
     32 H11         2.4046   -5.6569   -1.3175 H         1 <0>         0.0716
     33 H12         1.9891   -4.2617   -3.3749 H         1 <0>         0.0748
     34 H13         0.5003   -4.6254   -2.4647 H         1 <0>         0.0522
     35 H14         3.4988   -1.4038   -2.6201 H         1 <0>         0.1279
     36 H15         4.0431    0.1743   -4.4286 H         1 <0>         0.1318
     37 H16         0.1294   -0.3088   -6.0531 H         1 <0>         0.1273
     38 H17        -0.9357   -2.6581   -3.5286 H         1 <0>         0.3993
     39 H18        -1.3772   -1.8221   -4.9174 H         1 <0>         0.3975
@<TRIPOS>BOND
     1    1    2 1
     2    1   23 1
     3    1   24 1
     4    1   25 1
     5    2    3 am
     6    2   26 1
     7    3    4 2
     8    3    5 1
     9    5    6 1
    10    5   11 1
    11    5    7 1
    12    7    8 1
    13    7   27 1
    14    7   28 1
    15    8    9 1
    16    8   29 1
    17    8   30 1
    18    9   10 1
    19    9   31 1
    20    9   32 1
    21   10   11 1
    22   10   33 1
    23   10   34 1
    24   11   12 1
    25   12   17 ar
    26   12   13 ar
    27   13   14 ar
    28   13   35 1
    29   14   15 ar
    30   14   36 1
    31   15   16 ar
    32   15   19 1
    33   16   17 ar
    34   16   37 1
    35   17   18 1
    36   18   38 1
    37   18   39 1
    38   19   20 1
    39   19   21 1
    40   19   22 1
@<TRIPOS>MOLECULE
ZINC58714719
   52    55     0     0     0
SMALL
USER_CHARGES

@<TRIPOS>ATOM
      1 C1         -0.0187    1.5258    0.0104 C.3       1 <0>        -0.1233
      2 C2          1.4167    2.0553   -0.0004 C.3       1 <0>        -0.1095
      3 C3          2.1328    1.5619   -1.2592 C.3       1 <0>         0.1029
      4 C4          2.1536    0.0321   -1.2676 C.3       1 <0>        -0.1496
      5 C5          0.7182   -0.4975   -1.2568 C.3       1 <0>        -0.1271
      6 C6          0.0021   -0.0041    0.0020 C.3       1 <0>         0.1622
      7 N1         -1.3723   -0.5112    0.0124 N.am      1 <0>        -0.7441
      8 C7         -1.6337   -1.7395    0.5016 C.2       1 <0>         0.7031
      9 O1         -0.7289   -2.4268    0.9343 O.2       1 <0>        -0.5885
     10 N2         -2.8982   -2.2060    0.5112 N.am      1 <0>        -0.7435
     11 C8         -3.1823   -3.5412    1.0430 C.3       1 <0>         0.1488
     12 C9         -4.6823   -3.8235    0.9376 C.3       1 <0>        -0.0645
     13 C10        -5.4559   -2.7782    1.7438 C.3       1 <0>        -0.1008
     14 C11        -6.9559   -3.0605    1.6384 C.3       1 <0>        -0.0864
     15 C12        -7.2527   -4.4549    2.1938 C.3       1 <0>        -0.1093
     16 C13        -6.4791   -5.5002    1.3876 C.3       1 <0>        -0.0849
     17 C14        -4.9791   -5.2179    1.4930 C.3       1 <0>        -0.1002
     18 C15        -6.9089   -5.4334   -0.0793 C.3       1 <0>        -0.1093
     19 C16        -6.6121   -4.0390   -0.6346 C.3       1 <0>        -0.0863
     20 C17        -7.3856   -2.9937    0.1715 C.3       1 <0>        -0.1087
     21 C18        -5.1121   -3.7567   -0.5293 C.3       1 <0>        -0.1006
     22 O2          3.4735    2.0566   -1.2694 O.3       1 <0>        -0.5682
     23 H1         -0.5289    1.8773    0.9072 H         1 <0>         0.0768
     24 H2         -0.5459    1.8868   -0.8726 H         1 <0>         0.0702
     25 H3          1.4019    3.1452    0.0056 H         1 <0>         0.0759
     26 H4          1.9439    1.6943    0.8826 H         1 <0>         0.0744
     27 H5          1.6057    1.9230   -2.1423 H         1 <0>         0.0554
     28 H6          2.6638   -0.3194   -2.1644 H         1 <0>         0.0679
     29 H7          2.6808   -0.3290   -0.3846 H         1 <0>         0.0745
     30 H8          0.1910   -0.1364   -2.1398 H         1 <0>         0.0638
     31 H9          0.7330   -1.5874   -1.2628 H         1 <0>         0.0724
     32 H10         0.5293   -0.3651    0.8851 H         1 <0>         0.0907
     33 H11        -2.0942    0.0371   -0.3328 H         1 <0>         0.3945
     34 H12        -3.6200   -1.6577    0.1660 H         1 <0>         0.3946
     35 H13        -2.6312   -4.2859    0.4686 H         1 <0>         0.0664
     36 H14        -2.8761   -3.5888    2.0880 H         1 <0>         0.0666
     37 H15        -5.1497   -2.8258    2.7888 H         1 <0>         0.0650
     38 H16        -5.2445   -1.7848    1.3481 H         1 <0>         0.0596
     39 H17        -7.5070   -2.3158    2.2128 H         1 <0>         0.0699
     40 H18        -6.9465   -4.5025    3.2388 H         1 <0>         0.0622
     41 H19        -8.3213   -4.6561    2.1187 H         1 <0>         0.0621
     42 H20        -6.6905   -6.4936    1.7832 H         1 <0>         0.0717
     43 H21        -4.4280   -5.9626    0.9186 H         1 <0>         0.0662
     44 H22        -4.6729   -5.2655    2.5380 H         1 <0>         0.0663
     45 H23        -6.3578   -6.1781   -0.6536 H         1 <0>         0.0621
     46 H24        -7.9775   -5.6345   -0.1543 H         1 <0>         0.0621
     47 H25        -6.9183   -3.9914   -1.6797 H         1 <0>         0.0698
     48 H26        -8.4543   -3.1948    0.0965 H         1 <0>         0.0622
     49 H27        -7.1742   -2.0003   -0.2241 H         1 <0>         0.0603
     50 H28        -4.9007   -2.7632   -0.9249 H         1 <0>         0.0595
     51 H29        -4.5610   -4.5013   -1.1036 H         1 <0>         0.0648
     52 H30         3.9880    1.7824   -2.0409 H         1 <0>         0.3793
@<TRIPOS>BOND
     1    1    6 1
     2    1    2 1
     3    1   23 1
     4    1   24 1
     5    2    3 1
     6    2   25 1
     7    2   26 1
     8    3    4 1
     9    3   22 1
    10    3   27 1
    11    4    5 1
    12    4   28 1
    13    4   29 1
    14    5    6 1
    15    5   30 1
    16    5   31 1
    17    6    7 1
    18    6   32 1
    19    7    8 am
    20    7   33 1
    21    8    9 2
    22    8   10 am
    23   10   11 1
    24   10   34 1
    25   11   12 1
    26   11   35 1
    27   11   36 1
    28   12   17 1
    29   12   21 1
    30   12   13 1
    31   13   14 1
    32   13   37 1
    33   13   38 1
    34   14   20 1
    35   14   15 1
    36   14   39 1
    37   15   16 1
    38   15   40 1
    39   15   41 1
    40   16   17 1
    41   16   18 1
    42   16   42 1
    43   17   43 1
    44   17   44 1
    45   18   19 1
    46   18   45 1
    47   18   46 1
    48   19   20 1
    49   19   21 1
    50   19   47 1
    51   20   48 1
    52   20   49 1
    53   21   50 1
    54   21   51 1
    55   22   52 1
@<TRIPOS>MOLECULE
ZINC63067335
   39    40     0     0     0
SMALL
USER_CHARGES

@<TRIPOS>ATOM
      1 C1         -0.0233    1.5856    0.1795 C.3       1 <0>        -0.1667
      2 C2         -0.0160    0.0613    0.0478 C.3       1 <0>         0.1614
      3 C3         -1.4633   -0.4740    0.0644 C.3       1 <0>        -0.1232
      4 C4         -1.3406   -1.7821    0.8898 C.3       1 <0>        -0.1334
      5 C5         -0.2633   -1.3921    1.9323 C.3       1 <0>         0.1050
      6 N1          0.6836   -0.5363    1.1945 N.pl3     1 <0>        -0.6162
      7 C6          2.0206   -0.3286    1.5284 C.ar      1 <0>         0.2636
      8 C7          2.8027    0.5289    0.7614 C.ar      1 <0>        -0.1806
      9 C8          4.1244    0.7357    1.0889 C.ar      1 <0>        -0.0416
     10 C9          4.6791    0.0841    2.1921 C.ar      1 <0>        -0.0723
     11 C10         3.8920   -0.7754    2.9602 C.ar      1 <0>        -0.0859
     12 C11         2.5691   -0.9746    2.6312 C.ar      1 <0>        -0.1591
     13 C12         4.4874   -1.4809    4.1513 C.3       1 <0>         0.5192
     14 F1          3.5114   -2.2804    4.7557 F         1 <0>        -0.1873
     15 F2          5.5541   -2.2835    3.7327 F         1 <0>        -0.1616
     16 F3          4.9496   -0.5336    5.0713 F         1 <0>        -0.1615
     17 C13         6.0982    0.3038    2.5458 C.2       1 <0>         0.4040
     18 N2          6.6141   -0.3042    3.5745 N.2       1 <0>        -0.4108
     19 O1          7.9728   -0.0939    3.9132 O.3       1 <0>        -0.4164
     20 N3          6.8780    1.1564    1.7827 N.pl3     1 <0>        -0.8674
     21 C14         0.6775   -0.3449   -1.2541 C.3       1 <0>        -0.1653
     22 H1          1.0026    1.9529    0.2061 H         1 <0>         0.0658
     23 H2         -0.5433    2.0215   -0.6736 H         1 <0>         0.0694
     24 H3         -0.5345    1.8683    1.0997 H         1 <0>         0.0620
     25 H4         -2.1301    0.2327    0.5585 H         1 <0>         0.0798
     26 H5         -1.8072   -0.6874   -0.9477 H         1 <0>         0.0850
     27 H6         -2.2847   -2.0270    1.3764 H         1 <0>         0.0865
     28 H7         -0.9991   -2.6075    0.2652 H         1 <0>         0.0776
     29 H8         -0.7146   -0.8371    2.7548 H         1 <0>         0.0685
     30 H9          0.2422   -2.2823    2.3066 H         1 <0>         0.0758
     31 H10         2.3731    1.0327   -0.0919 H         1 <0>         0.1453
     32 H11         4.7313    1.4010    0.4926 H         1 <0>         0.1357
     33 H12         1.9585   -1.6363    3.2276 H         1 <0>         0.1420
     34 H13         8.2651   -0.5877    4.6915 H         1 <0>         0.4009
     35 H14         6.4936    1.6095    1.0160 H         1 <0>         0.3947
     36 H15         7.8088    1.3005    2.0147 H         1 <0>         0.4102
     37 H16         1.6662    0.1120   -1.2971 H         1 <0>         0.0651
     38 H17         0.7769   -1.4298   -1.2897 H         1 <0>         0.0626
     39 H18         0.0836   -0.0064   -2.1031 H         1 <0>         0.0691
@<TRIPOS>BOND
     1    1    2 1
     2    1   22 1
     3    1   23 1
     4    1   24 1
     5    2    6 1
     6    2    3 1
     7    2   21 1
     8    3    4 1
     9    3   25 1
    10    3   26 1
    11    4    5 1
    12    4   27 1
    13    4   28 1
    14    5    6 1
    15    5   29 1
    16    5   30 1
    17    6    7 1
    18    7   12 ar
    19    7    8 ar
    20    8    9 ar
    21    8   31 1
    22    9   10 ar
    23    9   32 1
    24   10   11 ar
    25   10   17 1
    26   11   12 ar
    27   11   13 1
    28   12   33 1
    29   13   14 1
    30   13   15 1
    31   13   16 1
    32   17   18 2
    33   17   20 1
    34   18   19 1
    35   19   34 1
    36   20   35 1
    37   20   36 1
    38   21   37 1
    39   21   38 1
    40   21   39 1
@<TRIPOS>MOLECULE
ZINC13094874
   52    54     0     0     0
SMALL
USER_CHARGES
3-[[3-[[(3R,5R)-3,5-dimethyl-1-piperidyl]sulfonyl]benzoyl]amino]benzoic acid
@<TRIPOS>ATOM
      1 C1          3.8060    2.4843    1.6744 C.3       1 <0>        -0.1468
      2 C2          2.4655    1.7468    1.6857 C.3       1 <0>        -0.1114
      3 H1          1.8904    2.0499    2.5606 H         1 <0>         0.0795
      4 C3          2.7134    0.2374    1.7352 C.3       1 <0>        -0.1056
      5 C4          1.3732   -0.5002    1.7797 C.3       1 <0>        -0.1066
      6 H2          1.5502   -1.5741    1.8388 H         1 <0>         0.0853
      7 C5          0.5775   -0.1822    0.5099 C.3       1 <0>         0.1215
      8 N1          0.4594    1.2764    0.3785 N.pl3     1 <0>        -0.9930
      9 C6          1.6822    2.0902    0.4148 C.3       1 <0>         0.1249
     10 S1         -1.0230    1.9890    0.1864 S.o2      1 <0>         2.6882
     11 O1         -0.7936    3.2380   -0.4513 O.2       1 <0>        -0.9542
     12 O2         -1.8812    0.9990   -0.3637 O.2       1 <0>        -0.9447
     13 C7         -1.6394    2.3514    1.7968 C.ar      1 <0>        -0.6843
     14 C8         -1.3573    3.5715    2.3856 C.ar      1 <0>         0.0009
     15 C9         -1.8374    3.8641    3.6496 C.ar      1 <0>        -0.1433
     16 C10        -2.6015    2.9397    4.3317 C.ar      1 <0>        -0.0331
     17 C11        -2.8898    1.7072    3.7436 C.ar      1 <0>        -0.1434
     18 C12        -2.4069    1.4206    2.4654 C.ar      1 <0>         0.0427
     19 C13        -3.7083    0.7123    4.4683 C.2       1 <0>         0.5478
     20 O3         -3.9578   -0.3604    3.9536 O.2       1 <0>        -0.4949
     21 N2         -4.1779    0.9943    5.6997 N.am      1 <0>        -0.6645
     22 C14        -5.0425    0.1006    6.3402 C.ar      1 <0>         0.1148
     23 C15        -4.9996   -0.0380    7.7227 C.ar      1 <0>        -0.1470
     24 C16        -5.8521   -0.9194    8.3606 C.ar      1 <0>        -0.1225
     25 C17        -6.7522   -1.6676    7.6294 C.ar      1 <0>        -0.0875
     26 C18        -6.8035   -1.5360    6.2402 C.ar      1 <0>        -0.0955
     27 C19        -5.9460   -0.6426    5.5968 C.ar      1 <0>        -0.0816
     28 C20        -7.7660   -2.3356    5.4549 C.2       1 <0>         0.4887
     29 O4         -7.8088   -2.2194    4.2465 O.co2     1 <0>        -0.6245
     30 C21         0.5804   -0.0451    3.0065 C.3       1 <0>        -0.1570
     31 H3          4.3798    2.1817    0.7984 H         1 <0>         0.0571
     32 H4          3.6289    3.5593    1.6391 H         1 <0>         0.0571
     33 H5          4.3642    2.2375    2.5774 H         1 <0>         0.0581
     34 H6          3.2920   -0.0066    2.6261 H         1 <0>         0.0651
     35 H7          3.2672   -0.0689    0.8477 H         1 <0>         0.0651
     36 H8         -0.4163   -0.6243    0.5811 H         1 <0>         0.0941
     37 H9          1.0959   -0.5866   -0.3596 H         1 <0>         0.0781
     38 H10         2.2929    1.8714   -0.4612 H         1 <0>         0.0767
     39 H11         1.4173    3.1475    0.4233 H         1 <0>         0.0893
     40 H12        -0.7599    4.2988    1.8558 H         1 <0>         0.1432
     41 H13        -1.6138    4.8183    4.1033 H         1 <0>         0.1403
     42 H14        -2.9760    3.1695    5.3182 H         1 <0>         0.1352
     43 H15        -2.6301    0.4705    2.0030 H         1 <0>         0.1546
     44 H16        -3.9162    1.8171    6.1418 H         1 <0>         0.4032
     45 H17        -4.2974    0.5447    8.3004 H         1 <0>         0.1164
     46 H18        -5.8139   -1.0226    9.4349 H         1 <0>         0.1213
     47 H19        -7.4171   -2.3547    8.1316 H         1 <0>         0.1327
     48 H20        -5.9838   -0.5333    4.5231 H         1 <0>         0.1394
     49 H21        -0.3752   -0.5685    3.0363 H         1 <0>         0.0588
     50 H22         1.1469   -0.2715    3.9098 H         1 <0>         0.0570
     51 H23         0.4046    1.0291    2.9476 H         1 <0>         0.0586
     52 O5         -8.5962   -3.1936    6.0788 O.co2     1 <0>        -0.7542
@<TRIPOS>BOND
     1    1    2 1
     2    1   31 1
     3    1   32 1
     4    1   33 1
     5    2    3 1
     6    2    9 1
     7    2    4 1
     8    4    5 1
     9    4   34 1
    10    4   35 1
    11    5    6 1
    12    5    7 1
    13    5   30 1
    14    7    8 1
    15    7   36 1
    16    7   37 1
    17    8    9 1
    18    8   10 1
    19    9   38 1
    20    9   39 1
    21   10   11 2
    22   10   12 2
    23   10   13 1
    24   13   18 ar
    25   13   14 ar
    26   14   15 ar
    27   14   40 1
    28   15   16 ar
    29   15   41 1
    30   16   17 ar
    31   16   42 1
    32   17   18 ar
    33   17   19 1
    34   18   43 1
    35   19   20 2
    36   19   21 am
    37   21   22 1
    38   21   44 1
    39   22   27 ar
    40   22   23 ar
    41   23   24 ar
    42   23   45 1
    43   24   25 ar
    44   24   46 1
    45   25   26 ar
    46   25   47 1
    47   26   27 ar
    48   26   28 1
    49   27   48 1
    50   28   29 2
    51   28   52 1
    52   30   49 1
    53   30   50 1
    54   30   51 1
@<TRIPOS>MOLECULE
ZINC13391450
   53    56     0     0     0
SMALL
USER_CHARGES
3-methyl-4-[[3-[(2R)-2-methylindolin-1-yl]sulfonylbenzoyl]amino]benzoic acid
@<TRIPOS>ATOM
      1 C1          3.3998   -0.7197    1.2139 C.3       1 <0>        -0.1073
      2 C2          2.2563    0.0221    0.5710 C.ar      1 <0>        -0.1284
      3 C3          2.2435    1.3986    0.5706 C.ar      1 <0>        -0.0695
      4 C4          1.1824    2.0859   -0.0260 C.ar      1 <0>        -0.1166
      5 C5          0.1376    1.3719   -0.6210 C.ar      1 <0>        -0.0653
      6 C6          0.1571   -0.0041   -0.6174 C.ar      1 <0>        -0.1302
      7 C7          1.2150   -0.6852   -0.0221 C.ar      1 <0>         0.1241
      8 N1          1.2310   -2.0783   -0.0195 N.am      1 <0>        -0.6574
      9 C8          0.0767   -2.7653    0.0900 C.2       1 <0>         0.5520
     10 O1         -0.9844   -2.1726    0.1031 O.2       1 <0>        -0.5055
     11 C9          0.1011   -4.2395    0.1942 C.ar      1 <0>        -0.1457
     12 C10         1.3179   -4.9238    0.1737 C.ar      1 <0>        -0.0297
     13 C11         1.3338   -6.2992    0.2761 C.ar      1 <0>        -0.1406
     14 C12         0.1467   -7.0016    0.3885 C.ar      1 <0>         0.0049
     15 C13        -1.0627   -6.3301    0.4042 C.ar      1 <0>        -0.6870
     16 C14        -1.0925   -4.9540    0.3078 C.ar      1 <0>         0.0403
     17 S1         -2.5683   -7.2340    0.5481 S.o2      1 <0>         2.6952
     18 O2         -2.2426   -8.4686    1.1718 O.2       1 <0>        -0.9391
     19 O3         -3.5299   -6.3380    1.0882 O.2       1 <0>        -0.9314
     20 N2         -3.0700   -7.5974   -0.9876 N.pl3     1 <0>        -0.9330
     21 C15        -2.7214   -8.7517   -1.6907 C.ar      1 <0>         0.1598
     22 C16        -1.9124   -9.8191   -1.2944 C.ar      1 <0>        -0.1548
     23 C17        -1.6904  -10.8775   -2.1489 C.ar      1 <0>        -0.0867
     24 C18        -2.2673  -10.8907   -3.4057 C.ar      1 <0>        -0.1428
     25 C19        -3.0692   -9.8381   -3.8053 C.ar      1 <0>        -0.0771
     26 C20        -3.2948   -8.7748   -2.9523 C.ar      1 <0>        -0.1275
     27 C21        -4.1143   -7.5165   -3.1310 C.3       1 <0>        -0.0798
     28 C22        -3.9497   -6.7570   -1.8044 C.3       1 <0>         0.1417
     29 H1         -3.4873   -5.7860   -1.9818 H         1 <0>         0.0947
     30 C23        -5.3055   -6.5829   -1.1172 C.3       1 <0>        -0.1889
     31 C24         1.1650    3.5603   -0.0279 C.2       1 <0>         0.4892
     32 O4          2.0735    4.1793    0.4895 O.co2     1 <0>        -0.6326
     33 H2          4.1815   -0.8937    0.4745 H         1 <0>         0.0654
     34 H3          3.8019   -0.1263    2.0350 H         1 <0>         0.0705
     35 H4          3.0429   -1.6757    1.5972 H         1 <0>         0.0552
     36 H5          3.0522    1.9469    1.0308 H         1 <0>         0.1314
     37 H6         -0.6814    1.8998   -1.0867 H         1 <0>         0.1347
     38 H7         -0.6495   -0.5561   -1.0768 H         1 <0>         0.1340
     39 H8          2.0730   -2.5538   -0.0965 H         1 <0>         0.4045
     40 H9          2.2448   -4.3771    0.0819 H         1 <0>         0.1380
     41 H10         2.2746   -6.8295    0.2649 H         1 <0>         0.1443
     42 H11         0.1645   -8.0788    0.4639 H         1 <0>         0.1453
     43 H12        -2.0373   -4.4309    0.3205 H         1 <0>         0.1564
     44 H13        -1.4585   -9.8149   -0.3144 H         1 <0>         0.1416
     45 H14        -1.0634  -11.6993   -1.8359 H         1 <0>         0.1300
     46 H15        -2.0920  -11.7214   -4.0732 H         1 <0>         0.1267
     47 H16        -3.5208   -9.8470   -4.7863 H         1 <0>         0.1255
     48 H17        -3.7284   -6.9261   -3.9620 H         1 <0>         0.0924
     49 H18        -5.1624   -7.7657   -3.2969 H         1 <0>         0.0942
     50 H19        -5.1624   -6.1095   -0.1458 H         1 <0>         0.0942
     51 H20        -5.9484   -5.9564   -1.7355 H         1 <0>         0.0803
     52 H21        -5.7717   -7.5587   -0.9807 H         1 <0>         0.0638
     53 O5          0.1414    4.2213   -0.6034 O.co2     1 <0>        -0.7534
@<TRIPOS>BOND
     1    1    2 1
     2    1   33 1
     3    1   34 1
     4    1   35 1
     5    2    7 ar
     6    2    3 ar
     7    3    4 ar
     8    3   36 1
     9    4    5 ar
    10    4   31 1
    11    5    6 ar
    12    5   37 1
    13    6    7 ar
    14    6   38 1
    15    7    8 1
    16    8    9 am
    17    8   39 1
    18    9   10 2
    19    9   11 1
    20   11   16 ar
    21   11   12 ar
    22   12   13 ar
    23   12   40 1
    24   13   14 ar
    25   13   41 1
    26   14   15 ar
    27   14   42 1
    28   15   16 ar
    29   15   17 1
    30   16   43 1
    31   17   18 2
    32   17   19 2
    33   17   20 1
    34   20   28 1
    35   20   21 1
    36   21   26 ar
    37   21   22 ar
    38   22   23 ar
    39   22   44 1
    40   23   24 ar
    41   23   45 1
    42   24   25 ar
    43   24   46 1
    44   25   26 ar
    45   25   47 1
    46   26   27 1
    47   27   28 1
    48   27   48 1
    49   27   49 1
    50   28   29 1
    51   28   30 1
    52   30   50 1
    53   30   51 1
    54   30   52 1
    55   31   32 2
    56   31   53 1
@<TRIPOS>MOLECULE
ZINC01055753
   42    45     0     0     0
SMALL
USER_CHARGES
N-[4-[(5-methylisoxazol-3-yl)sulfamoyl]phenyl]benzothiophene-3-carboxamide
@<TRIPOS>ATOM
      1 C1         -4.7484   -4.4138   -4.8979 C.3       1 <0>        -0.0638
      2 C2         -4.9985   -3.7153   -3.5862 C.2       1 <0>        -0.0590
      3 C3         -6.0646   -2.9455   -3.2714 C.2       1 <0>        -0.2457
      4 C4         -5.8100   -2.5378   -1.9342 C.2       1 <0>         0.3147
      5 N1         -4.6658   -3.0761   -1.6004 N.2       1 <0>        -0.4745
      6 O1         -4.2069   -3.7357   -2.5040 O.3       1 <0>         0.0548
      7 N2         -6.6134   -1.7246   -1.1416 N.2       1 <0>        -1.0172
      8 S1         -6.1482   -1.3555    0.4043 S.o2      1 <0>         2.6022
      9 O2         -5.7873   -2.5825    1.0237 O.2       1 <0>        -1.0248
     10 O3         -7.1498   -0.4993    0.9363 O.2       1 <0>        -0.9988
     11 C5         -4.6745   -0.3965    0.2900 C.ar      1 <0>        -0.6660
     12 C6         -4.7531    0.9814    0.2032 C.ar      1 <0>        -0.0114
     13 C7         -3.5999    1.7360    0.1130 C.ar      1 <0>        -0.1507
     14 C8         -2.3603    1.1095    0.1095 C.ar      1 <0>         0.1732
     15 C9         -2.2851   -0.2749    0.1916 C.ar      1 <0>        -0.1728
     16 C10        -3.4419   -1.0234    0.2868 C.ar      1 <0>         0.0081
     17 N3         -1.1906    1.8707    0.0179 N.am      1 <0>        -0.6771
     18 C11        -1.1255    3.0799    0.6094 C.2       1 <0>         0.5696
     19 O4         -2.1104    3.5462    1.1511 O.2       1 <0>        -0.5144
     20 C12         0.1353    3.8319    0.6055 C.2       1 <0>        -0.1478
     21 C13         1.2468    3.3278    0.0049 C.2       1 <0>        -0.1509
     22 S2          2.4571    4.5400    0.2513 S.3       1 <0>         0.1176
     23 C14         1.5053    5.7323    1.1545 C.ar      1 <0>        -0.1320
     24 C15         0.2276    5.1477    1.2431 C.ar      1 <0>        -0.0609
     25 C16        -0.7646    5.8782    1.9285 C.ar      1 <0>        -0.0624
     26 C17        -0.4782    7.1068    2.4675 C.ar      1 <0>        -0.1220
     27 C18         0.7887    7.6619    2.3605 C.ar      1 <0>        -0.0939
     28 C19         1.7831    6.9678    1.6996 C.ar      1 <0>        -0.0805
     29 H1         -5.5792   -4.2059   -5.5882 H         1 <0>         0.0805
     30 H2         -4.6755   -5.4981   -4.7278 H         1 <0>         0.0732
     31 H3         -3.8079   -4.0472   -5.3351 H         1 <0>         0.0722
     32 H4         -6.9131   -2.6982   -3.8922 H         1 <0>         0.1517
     33 H5         -5.7173    1.4680    0.2062 H         1 <0>         0.1352
     34 H6         -3.6619    2.8121    0.0456 H         1 <0>         0.1371
     35 H7         -1.3229   -0.7654    0.1850 H         1 <0>         0.1237
     36 H8         -3.3840   -2.0996    0.3551 H         1 <0>         0.1452
     37 H9         -0.3238    1.4824   -0.5369 H         1 <0>         0.4276
     38 H10         1.3506    2.3839   -0.5097 H         1 <0>         0.1950
     39 H11        -1.7593    5.4692    2.0262 H         1 <0>         0.1472
     40 H12        -1.2537    7.6523    2.9846 H         1 <0>         0.1304
     41 H13         0.9958    8.6306    2.7909 H         1 <0>         0.1349
     42 H14         2.7731    7.3903    1.6107 H         1 <0>         0.1324
@<TRIPOS>BOND
     1    1    2 1
     2    1   29 1
     3    1   30 1
     4    1   31 1
     5    2    6 1
     6    2    3 2
     7    3    4 1
     8    3   32 1
     9    4    5 2
    10    4    7 1
    11    5    6 1
    12    7    8 1
    13    8    9 2
    14    8   10 2
    15    8   11 1
    16   11   16 ar
    17   11   12 ar
    18   12   13 ar
    19   12   33 1
    20   13   14 ar
    21   13   34 1
    22   14   15 ar
    23   14   17 1
    24   15   16 ar
    25   15   35 1
    26   16   36 1
    27   17   18 am
    28   17   37 1
    29   18   19 2
    30   18   20 1
    31   20   24 1
    32   20   21 2
    33   21   22 1
    34   21   38 1
    35   22   23 1
    36   23   28 ar
    37   23   24 ar
    38   24   25 ar
    39   25   26 ar
    40   25   39 1
    41   26   27 ar
    42   26   40 1
    43   27   28 ar
    44   27   41 1
    45   28   42 1
@<TRIPOS>MOLECULE
ZINC39679239
   51    54     0     0     0
SMALL
USER_CHARGES

@<TRIPOS>ATOM
      1 C1          0.6866    2.1842   -0.2105 C.ar      1 <0>        -0.0444
      2 C2          1.8513    2.6311    0.3866 C.ar      1 <0>        -0.1155
      3 C3          2.9706    1.8211    0.4126 C.ar      1 <0>        -0.0153
      4 C4          2.9242    0.5562   -0.1618 C.ar      1 <0>         0.1719
      5 C5          1.7531    0.1114   -0.7597 C.ar      1 <0>        -0.0272
      6 C6          0.6379    0.9265   -0.7826 C.ar      1 <0>        -0.6606
      7 S1         -0.8489    0.3622   -1.5415 S.o2      1 <0>         2.6925
      8 O1         -0.8015   -1.0578   -1.5213 O.2       1 <0>        -0.9445
      9 O2         -1.9112    1.0975   -0.9499 O.2       1 <0>        -0.9582
     10 N1         -0.7886    0.8152   -3.1332 N.pl3     1 <0>        -0.9970
     11 C7         -1.3192    2.1166   -3.5617 C.3       1 <0>         0.1201
     12 C8         -0.2301    2.8609   -4.3404 C.3       1 <0>        -0.1376
     13 C9          0.2669    1.9766   -5.4863 C.3       1 <0>        -0.1155
     14 C10         0.8731    0.6924   -4.9159 C.3       1 <0>        -0.1380
     15 C11        -0.1981   -0.0740   -4.1427 C.3       1 <0>         0.1192
     16 N2          4.0561   -0.2669   -0.1378 N.am      1 <0>        -0.6604
     17 C12         3.9148   -1.6073   -0.1405 C.2       1 <0>         0.5459
     18 O3          2.8163   -2.1010   -0.2848 O.2       1 <0>        -0.5015
     19 C13         5.1215   -2.4926    0.0359 C.3       1 <0>        -0.0943
     20 H1          5.8857   -2.2483   -0.7020 H         1 <0>         0.0842
     21 C14         4.7182   -3.9979   -0.0689 C.3       1 <0>        -0.0497
     22 H2          4.5607   -4.3866   -1.0750 H         1 <0>         0.0915
     23 C15         5.8717   -4.6599    0.7702 C.3       1 <0>        -0.1216
     24 C16         5.5520   -3.8075    2.0525 C.3       1 <0>        -0.0618
     25 H3          6.1306   -4.0355    2.9478 H         1 <0>         0.0887
     26 C17         5.6884   -2.3606    1.4707 C.3       1 <0>        -0.1545
     27 H4          6.7339   -2.0536    1.4429 H         1 <0>         0.0695
     28 C18         4.8695   -1.3850    2.2762 C.2       1 <0>         0.4919
     29 O4          3.7178   -1.6543    2.5720 O.co2     1 <0>        -0.6634
     30 O5          5.3588   -0.3265    2.6320 O.co2     1 <0>        -0.6867
     31 C19         4.0380   -4.0334    2.1452 C.2       1 <0>        -0.1046
     32 C20         3.5429   -4.1380    0.9062 C.2       1 <0>        -0.1766
     33 Cl1         4.4327    2.3828    1.1612 Cl        1 <0>        -0.0303
     34 H5         -0.1882    2.8174   -0.2259 H         1 <0>         0.1414
     35 H6          1.8861    3.6140    0.8326 H         1 <0>         0.1408
     36 H7          1.7140   -0.8707   -1.2072 H         1 <0>         0.1719
     37 H8         -2.1874    1.9640   -4.2029 H         1 <0>         0.0736
     38 H9         -1.6065    2.7000   -2.6870 H         1 <0>         0.0901
     39 H10        -0.6404    3.7857   -4.7461 H         1 <0>         0.0738
     40 H11         0.6002    3.0927   -3.6733 H         1 <0>         0.0694
     41 H12        -0.5687    1.7249   -6.1394 H         1 <0>         0.0633
     42 H13         1.0247    2.5135   -6.0570 H         1 <0>         0.0629
     43 H14         1.2479    0.0736   -5.7312 H         1 <0>         0.0751
     44 H15         1.6930    0.9445   -4.2433 H         1 <0>         0.0687
     45 H16         0.2541   -0.9354   -3.6512 H         1 <0>         0.0928
     46 H17        -0.9727   -0.4092   -4.8324 H         1 <0>         0.0739
     47 H18         4.9422    0.1273   -0.1194 H         1 <0>         0.4128
     48 H19         5.7139   -5.7268    0.9280 H         1 <0>         0.0716
     49 H20         6.8599   -4.4465    0.3627 H         1 <0>         0.0664
     50 H21         3.4629   -4.0925    3.0575 H         1 <0>         0.1136
     51 H22         2.5112   -4.3022    0.6324 H         1 <0>         0.1217
@<TRIPOS>BOND
     1    1    6 ar
     2    1    2 ar
     3    1   34 1
     4    2    3 ar
     5    2   35 1
     6    3    4 ar
     7    3   33 1
     8    4    5 ar
     9    4   16 1
    10    5    6 ar
    11    5   36 1
    12    6    7 1
    13    7    8 2
    14    7    9 2
    15    7   10 1
    16   10   15 1
    17   10   11 1
    18   11   12 1
    19   11   37 1
    20   11   38 1
    21   12   13 1
    22   12   39 1
    23   12   40 1
    24   13   14 1
    25   13   41 1
    26   13   42 1
    27   14   15 1
    28   14   43 1
    29   14   44 1
    30   15   45 1
    31   15   46 1
    32   16   17 am
    33   16   47 1
    34   17   18 2
    35   17   19 1
    36   19   20 1
    37   19   26 1
    38   19   21 1
    39   21   22 1
    40   21   32 1
    41   21   23 1
    42   23   24 1
    43   23   48 1
    44   23   49 1
    45   24   25 1
    46   24   26 1
    47   24   31 1
    48   26   27 1
    49   26   28 1
    50   28   29 2
    51   28   30 1
    52   31   32 2
    53   31   50 1
    54   32   51 1
@<TRIPOS>MOLECULE
ZINC31818108
   38    41     0     0     0
SMALL
USER_CHARGES

@<TRIPOS>ATOM
      1 C1         -0.0184    1.5028    0.0103 C.3       1 <0>        -0.0712
      2 C2          0.0021   -0.0041    0.0020 C.2       1 <0>         0.1097
      3 C3          0.0079   -0.8104   -1.1268 C.2       1 <0>        -0.2912
      4 C4          0.0322   -2.1160   -0.7141 C.2       1 <0>         0.3434
      5 N1          0.0321   -2.1169    0.6356 N.pl3     1 <0>        -0.2731
      6 N2          0.0231   -0.7786    1.0617 N.2       1 <0>        -0.2825
      7 C5          0.0444   -3.2466    1.4610 C.ar      1 <0>         0.1410
      8 C6          0.5481   -3.1589    2.7582 C.ar      1 <0>        -0.0728
      9 C7          0.5392   -4.3038    3.5369 C.ar      1 <0>        -0.2055
     10 C8          0.0275   -5.4722    2.9756 C.ar      1 <0>         0.3606
     11 O1         -0.0020   -6.6191    3.7012 O.3       1 <0>        -0.6809
     12 N3         -0.4295   -5.4613    1.7348 N.ar      1 <0>        -0.3253
     13 N4         -0.4266   -4.3990    1.0144 N.ar      1 <0>        -0.2158
     14 N5          0.0637   -3.1754   -1.6197 N.am      1 <0>        -0.6399
     15 C9          0.2740   -2.8915   -2.9226 C.2       1 <0>         0.5305
     16 O2          0.1183   -3.7672   -3.7472 O.2       1 <0>        -0.5178
     17 C10         0.6943   -1.5245   -3.3833 C.3       1 <0>        -0.1335
     18 C11        -0.0135   -0.4259   -2.5845 C.3       1 <0>         0.0475
     19 H1          0.5073    0.5218   -2.7221 H         1 <0>         0.1082
     20 C12        -1.4394   -0.2954   -3.0544 C.ar      1 <0>        -0.0766
     21 C13        -2.2929   -1.3807   -2.9808 C.ar      1 <0>        -0.0628
     22 C14        -3.6009   -1.2626   -3.4108 C.ar      1 <0>        -0.1400
     23 C15        -4.0571   -0.0568   -3.9157 C.ar      1 <0>         0.1226
     24 C16        -3.2014    1.0301   -3.9892 C.ar      1 <0>        -0.1293
     25 C17        -1.8944    0.9106   -3.5532 C.ar      1 <0>        -0.0567
     26 Br1        -3.8221    2.6780   -4.6784 Br        1 <0>        -0.0345
     27 F1         -5.3355    0.0595   -4.3368 F         1 <0>        -0.1264
     28 H2          1.0042    1.8801    0.0026 H         1 <0>         0.0790
     29 H3         -0.5455    1.8639   -0.8728 H         1 <0>         0.0768
     30 H4         -0.5286    1.8543    0.9071 H         1 <0>         0.0743
     31 H5          0.9336   -2.2266    3.1437 H         1 <0>         0.1323
     32 H6          0.9176   -4.2917    4.5484 H         1 <0>         0.1322
     33 H7         -0.0615   -4.0901   -1.3222 H         1 <0>         0.4291
     34 H8          1.7718   -1.4205   -3.2556 H         1 <0>         0.1127
     35 H9          0.4487   -1.4126   -4.4394 H         1 <0>         0.1120
     36 H10        -1.9371   -2.3214   -2.5873 H         1 <0>         0.1335
     37 H11        -4.2670   -2.1108   -3.3534 H         1 <0>         0.1445
     38 H12        -1.2280    1.7589   -3.6061 H         1 <0>         0.1453
@<TRIPOS>BOND
     1    1    2 1
     2    1   28 1
     3    1   29 1
     4    1   30 1
     5    2    6 2
     6    2    3 1
     7    3   18 1
     8    3    4 2
     9    4    5 1
    10    4   14 1
    11    5    6 1
    12    5    7 1
    13    7   13 ar
    14    7    8 ar
    15    8    9 ar
    16    8   31 1
    17    9   10 ar
    18    9   32 1
    19   10   11 1
    20   10   12 ar
    21   12   13 ar
    22   14   15 am
    23   14   33 1
    24   15   16 2
    25   15   17 1
    26   17   18 1
    27   17   34 1
    28   17   35 1
    29   18   19 1
    30   18   20 1
    31   20   25 ar
    32   20   21 ar
    33   21   22 ar
    34   21   36 1
    35   22   23 ar
    36   22   37 1
    37   23   24 ar
    38   23   27 1
    39   24   25 ar
    40   24   26 1
    41   25   38 1
@<TRIPOS>MOLECULE
ZINC09064673
   52    54     0     0     0
SMALL
USER_CHARGES
4-methyl-3-[[3-nitro-4-(1-piperidyl)benzoyl]thiocarbamoylamino]benzoic acid
@<TRIPOS>ATOM
      1 C1          2.0484    1.7858    1.8938 C.3       1 <0>        -0.1088
      2 C2          0.9656    2.1384    0.9068 C.ar      1 <0>        -0.0926
      3 C3         -0.2243    1.4342    0.9089 C.ar      1 <0>        -0.1349
      4 C4         -1.2183    1.7473    0.0047 C.ar      1 <0>        -0.0620
      5 C5         -1.0282    2.7854   -0.9102 C.ar      1 <0>        -0.1080
      6 C6          0.1725    3.4958   -0.9121 C.ar      1 <0>        -0.0317
      7 C7          1.1666    3.1699   -0.0025 C.ar      1 <0>         0.0913
      8 N1          2.3726    3.8792   -0.0002 N.pl3     1 <0>        -0.6100
      9 C8          2.3638    5.2236   -0.0951 C.2       1 <0>         0.4923
     10 S1          0.8777    6.0733   -0.0772 S.2       1 <0>        -0.4472
     11 N2          3.5250    5.8990   -0.2041 N.am      1 <0>        -0.6411
     12 C9          3.5162    7.2434   -0.2990 C.2       1 <0>         0.5335
     13 O1          2.4609    7.8468   -0.2862 O.2       1 <0>        -0.3868
     14 C10         4.7865    7.9823   -0.4182 C.ar      1 <0>        -0.1303
     15 C11         6.0015    7.2902   -0.4272 C.ar      1 <0>        -0.0336
     16 C12         7.1778    7.9748   -0.5430 C.ar      1 <0>        -0.1569
     17 C13         7.1731    9.3637   -0.6408 C.ar      1 <0>         0.1853
     18 C14         5.9684   10.0615   -0.6273 C.ar      1 <0>        -0.0307
     19 C15         4.7792    9.3772   -0.5167 C.ar      1 <0>         0.0110
     20 N3          5.9665   11.5380   -0.7315 N.pl3     1 <0>         0.0269
     21 O2          4.9123   12.1480   -0.7193 O.2       1 <0>        -0.1837
     22 O3          7.0191   12.1430   -0.8293 O.3       1 <0>        -0.0954
     23 N4          8.3741   10.0551   -0.7525 N.pl3     1 <0>        -0.4987
     24 C16         9.0634    9.7140   -2.0035 C.3       1 <0>         0.0635
     25 C17        10.3030   10.5973   -2.1617 C.3       1 <0>        -0.1165
     26 C18        11.2356   10.3784   -0.9671 C.3       1 <0>        -0.1219
     27 C19        10.4786   10.6942    0.3259 C.3       1 <0>        -0.1163
     28 C20         9.2339    9.8081    0.4120 C.3       1 <0>         0.0622
     29 C21        -2.0928    3.1263   -1.8762 C.2       1 <0>         0.4908
     30 O4         -1.9234    4.0265   -2.6740 O.co2     1 <0>        -0.6230
     31 H1          2.7044    1.0314    1.4593 H         1 <0>         0.0658
     32 H2          2.6279    2.6778    2.1315 H         1 <0>         0.0543
     33 H3          1.5962    1.3929    2.8044 H         1 <0>         0.0702
     34 H4         -0.3744    0.6334    1.6178 H         1 <0>         0.1227
     35 H5         -2.1445    1.1919    0.0066 H         1 <0>         0.1348
     36 H6          0.3271    4.2966   -1.6201 H         1 <0>         0.1412
     37 H7          3.2150    3.4034    0.0696 H         1 <0>         0.3997
     38 H8          4.3670    5.4176   -0.2143 H         1 <0>         0.4030
     39 H9          6.0096    6.2132   -0.3471 H         1 <0>         0.1419
     40 H10         8.1146    7.4374   -0.5541 H         1 <0>         0.1505
     41 H11         3.8432    9.9160   -0.5057 H         1 <0>         0.1744
     42 H12         9.3645    8.6667   -1.9782 H         1 <0>         0.0422
     43 H13         8.3906    9.8781   -2.8452 H         1 <0>         0.0773
     44 H14        10.0014   11.6440   -2.2009 H         1 <0>         0.0816
     45 H15        10.8232   10.3338   -3.0826 H         1 <0>         0.0715
     46 H16        12.0994   11.0375   -1.0538 H         1 <0>         0.0686
     47 H17        11.5683    9.3406   -0.9502 H         1 <0>         0.0581
     48 H18        10.1798   11.7425    0.3258 H         1 <0>         0.0810
     49 H19        11.1241   10.4993    1.1823 H         1 <0>         0.0711
     50 H20         8.6850   10.0405    1.3246 H         1 <0>         0.0771
     51 H21         9.5344    8.7604    0.4258 H         1 <0>         0.0420
     52 O5         -3.2512    2.4388   -1.8723 O.co2     1 <0>        -0.7558
@<TRIPOS>BOND
     1    1    2 1
     2    1   31 1
     3    1   32 1
     4    1   33 1
     5    2    7 ar
     6    2    3 ar
     7    3    4 ar
     8    3   34 1
     9    4    5 ar
    10    4   35 1
    11    5    6 ar
    12    5   29 1
    13    6    7 ar
    14    6   36 1
    15    7    8 1
    16    8    9 1
    17    8   37 1
    18    9   10 2
    19    9   11 1
    20   11   12 am
    21   11   38 1
    22   12   13 2
    23   12   14 1
    24   14   19 ar
    25   14   15 ar
    26   15   16 ar
    27   15   39 1
    28   16   17 ar
    29   16   40 1
    30   17   18 ar
    31   17   23 1
    32   18   19 ar
    33   18   20 1
    34   19   41 1
    35   20   21 2
    36   20   22 1
    37   23   28 1
    38   23   24 1
    39   24   25 1
    40   24   42 1
    41   24   43 1
    42   25   26 1
    43   25   44 1
    44   25   45 1
    45   26   27 1
    46   26   46 1
    47   26   47 1
    48   27   28 1
    49   27   48 1
    50   27   49 1
    51   28   50 1
    52   28   51 1
    53   29   30 2
    54   29   52 1
@<TRIPOS>MOLECULE
ZINC13265022
   47    49     0     0     0
SMALL
USER_CHARGES
2,4-dichloro-5-[[[4-(2,5-dimethylpyrrol-1-yl)benzoyl]amino]sulfamoyl]benzoic acid
@<TRIPOS>ATOM
      1 C1          8.5854   -3.0739    2.0991 C.3       1 <0>        -0.0874
      2 C2          7.7650   -3.5103    3.2855 C.2       1 <0>         0.0231
      3 C3          7.8828   -4.6831    3.9398 C.2       1 <0>        -0.1916
      4 C4          6.9269   -4.6879    4.9761 C.2       1 <0>        -0.1906
      5 C5          6.2638   -3.5154    4.9208 C.2       1 <0>         0.0195
      6 N1          6.7756   -2.7842    3.8863 N.pl3     1 <0>        -0.4074
      7 C6          6.3532   -1.5079    3.5025 C.ar      1 <0>         0.1470
      8 C7          7.2210   -0.4271    3.6150 C.ar      1 <0>        -0.1174
      9 C8          6.8081    0.8315    3.2384 C.ar      1 <0>        -0.0406
     10 C9          5.5158    1.0219    2.7428 C.ar      1 <0>        -0.1212
     11 C10         4.6447   -0.0654    2.6366 C.ar      1 <0>        -0.0693
     12 C11         5.0662   -1.3222    3.0097 C.ar      1 <0>        -0.1129
     13 C12         5.0695    2.3698    2.3380 C.2       1 <0>         0.5679
     14 O1          5.8270    3.3157    2.4357 O.2       1 <0>        -0.5131
     15 N2          3.8225    2.5516    1.8601 N.am      1 <0>        -0.5034
     16 N3          3.3991    3.8306    1.4760 N.pl3     1 <0>        -0.8993
     17 S1          2.8118    4.0844   -0.0514 S.o2      1 <0>         2.6954
     18 O2          3.8173    3.6407   -0.9521 O.2       1 <0>        -0.9293
     19 O3          2.2992    5.4096   -0.0745 O.2       1 <0>        -0.9251
     20 C13         1.4336    3.0076   -0.2652 C.ar      1 <0>        -0.6977
     21 C14         1.4861    2.0025   -1.2073 C.ar      1 <0>         0.0449
     22 C15         0.3932    1.1490   -1.3757 C.ar      1 <0>        -0.1187
     23 C16        -0.7459    1.3171   -0.5824 C.ar      1 <0>         0.0539
     24 C17        -0.7874    2.3311    0.3533 C.ar      1 <0>        -0.1362
     25 C18         0.3002    3.1730    0.5142 C.ar      1 <0>         0.0570
     26 Cl1         0.2433    4.4412    1.6984 Cl        1 <0>        -0.0455
     27 Cl2        -2.1069    0.2573   -0.7780 Cl        1 <0>        -0.0120
     28 C19         0.4429    0.0710   -2.3824 C.2       1 <0>         0.4849
     29 O4         -0.5091   -0.6697   -2.5267 O.co2     1 <0>        -0.5968
     30 C20         5.1504   -3.0856    5.8410 C.3       1 <0>        -0.0854
     31 H1          9.4755   -2.5491    2.4462 H         1 <0>         0.0706
     32 H2          8.8818   -3.9489    1.5207 H         1 <0>         0.0814
     33 H3          7.9922   -2.4079    1.4724 H         1 <0>         0.0654
     34 H4          8.5790   -5.4759    3.7093 H         1 <0>         0.1381
     35 H5          6.7567   -5.4852    5.6844 H         1 <0>         0.1377
     36 H6          8.2197   -0.5749    3.9985 H         1 <0>         0.1380
     37 H7          7.4825    1.6706    3.3264 H         1 <0>         0.1489
     38 H8          3.6435    0.0789    2.2581 H         1 <0>         0.1381
     39 H9          4.3948   -2.1638    2.9240 H         1 <0>         0.1399
     40 H10         3.2182    1.7969    1.7822 H         1 <0>         0.4214
     41 H11         3.4500    4.5675    2.1047 H         1 <0>         0.4293
     42 H12         2.3704    1.8754   -1.8141 H         1 <0>         0.1715
     43 H13        -1.6679    2.4653    0.9640 H         1 <0>         0.1504
     44 H14         4.1934   -3.4015    5.4257 H         1 <0>         0.0719
     45 H15         5.2907   -3.5441    6.8199 H         1 <0>         0.0797
     46 H16         5.1619   -2.0005    5.9430 H         1 <0>         0.0626
     47 O5          1.5441   -0.0916   -3.1415 O.co2     1 <0>        -0.7378
@<TRIPOS>BOND
     1    1    2 1
     2    1   31 1
     3    1   32 1
     4    1   33 1
     5    2    6 1
     6    2    3 2
     7    3    4 1
     8    3   34 1
     9    4    5 2
    10    4   35 1
    11    5    6 1
    12    5   30 1
    13    6    7 1
    14    7   12 ar
    15    7    8 ar
    16    8    9 ar
    17    8   36 1
    18    9   10 ar
    19    9   37 1
    20   10   11 ar
    21   10   13 1
    22   11   12 ar
    23   11   38 1
    24   12   39 1
    25   13   14 2
    26   13   15 am
    27   15   16 1
    28   15   40 1
    29   16   17 1
    30   16   41 1
    31   17   18 2
    32   17   19 2
    33   17   20 1
    34   20   25 ar
    35   20   21 ar
    36   21   22 ar
    37   21   42 1
    38   22   23 ar
    39   22   28 1
    40   23   24 ar
    41   23   27 1
    42   24   25 ar
    43   24   43 1
    44   25   26 1
    45   28   29 2
    46   28   47 1
    47   30   44 1
    48   30   45 1
    49   30   46 1
@<TRIPOS>MOLECULE
ZINC25591915
   54    57     0     0     0
SMALL
USER_CHARGES
N-(3-acetamido-4-methoxy-phenyl)-3-(2-thienylsulfonylamino)naphthalene-2-carboxamide
@<TRIPOS>ATOM
      1 C1          6.1209   -4.6792   -6.1677 C.3       1 <0>        -0.1699
      2 C2          5.4022   -4.2430   -4.9169 C.2       1 <0>         0.5085
      3 O1          5.9882   -3.5952   -4.0754 O.2       1 <0>        -0.5352
      4 N1          4.1084   -4.5728   -4.7335 N.am      1 <0>        -0.6738
      5 C3          3.4101   -4.0787   -3.6237 C.ar      1 <0>         0.1359
      6 C4          3.7017   -2.8184   -3.1246 C.ar      1 <0>        -0.1220
      7 C5          3.0079   -2.3317   -2.0255 C.ar      1 <0>         0.1564
      8 C6          2.0269   -3.1087   -1.4233 C.ar      1 <0>        -0.0987
      9 C7          1.7316   -4.3625   -1.9235 C.ar      1 <0>        -0.1678
     10 C8          2.4215   -4.8527   -3.0204 C.ar      1 <0>         0.0734
     11 O2          2.1331   -6.0894   -3.5085 O.3       1 <0>        -0.3235
     12 C9          1.1079   -6.8276   -2.8406 C.3       1 <0>         0.0271
     13 N2          3.3012   -1.0591   -1.5201 N.am      1 <0>        -0.6964
     14 C10         2.3159   -0.2918   -1.0133 C.2       1 <0>         0.5545
     15 O3          1.1871   -0.7347   -0.9202 O.2       1 <0>        -0.4646
     16 C11         2.6065    1.0851   -0.5715 C.ar      1 <0>        -0.1428
     17 C12         3.8942    1.5854   -0.6790 C.ar      1 <0>        -0.0562
     18 C13         4.1646    2.8948   -0.2576 C.ar      1 <0>        -0.1159
     19 C14         5.4607    3.4342   -0.3532 C.ar      1 <0>        -0.0828
     20 C15         5.6927    4.7084    0.0635 C.ar      1 <0>        -0.1597
     21 C16         4.6639    5.4913    0.5854 C.ar      1 <0>        -0.1124
     22 C17         3.3978    5.0043    0.6935 C.ar      1 <0>        -0.1228
     23 C18         3.1173    3.6918    0.2737 C.ar      1 <0>         0.0171
     24 C19         1.8195    3.1650    0.3682 C.ar      1 <0>        -0.2597
     25 C20         1.5707    1.8856   -0.0410 C.ar      1 <0>         0.2826
     26 N3          0.2834    1.3680    0.0606 N.2       1 <0>        -1.0105
     27 S1         -1.0259    2.3472   -0.2024 S.o2      1 <0>         2.6043
     28 O4         -2.1732    1.5094   -0.1675 O.2       1 <0>        -0.9838
     29 O5         -0.8744    3.4677    0.6583 O.2       1 <0>        -1.0313
     30 C21        -0.8977    2.9571   -1.8504 C.2       1 <0>        -0.6914
     31 C22        -1.3846    2.4247   -2.9980 C.2       1 <0>        -0.0538
     32 C23        -1.1607    3.0854   -4.1913 C.2       1 <0>        -0.1781
     33 C24        -0.4609    4.2462   -4.1787 C.2       1 <0>        -0.1798
     34 S2         -0.0994    4.4407   -2.4412 S.3       1 <0>         0.1315
     35 H1          5.4316   -5.2516   -6.8059 H         1 <0>         0.0772
     36 H2          6.9792   -5.3111   -5.8959 H         1 <0>         0.0955
     37 H3          6.4763   -3.7932   -6.7142 H         1 <0>         0.0967
     38 H4          3.6007   -5.2298   -5.4550 H         1 <0>         0.4354
     39 H5          4.4680   -2.2164   -3.5902 H         1 <0>         0.1404
     40 H6          1.4908   -2.7305   -0.5653 H         1 <0>         0.1478
     41 H7          0.9652   -4.9629   -1.4560 H         1 <0>         0.1320
     42 H8          0.9772   -7.8021   -3.3338 H         1 <0>         0.0971
     43 H9          0.1636   -6.2651   -2.8839 H         1 <0>         0.0564
     44 H10         1.3938   -6.9838   -1.7899 H         1 <0>         0.0548
     45 H11         4.3358   -0.6857   -1.5367 H         1 <0>         0.4233
     46 H12         4.6842    0.9707   -1.0844 H         1 <0>         0.1181
     47 H13         6.2677    2.8394   -0.7551 H         1 <0>         0.1157
     48 H14         6.6886    5.1195   -0.0111 H         1 <0>         0.1100
     49 H15         4.8751    6.4997    0.9093 H         1 <0>         0.1110
     50 H16         2.6117    5.6232    1.1003 H         1 <0>         0.1206
     51 H17         1.0189    3.7697    0.7679 H         1 <0>         0.1570
     52 H18        -1.9395    1.4984   -2.9801 H         1 <0>         0.1385
     53 H19        -1.5380    2.6830   -5.1197 H         1 <0>         0.1309
     54 H20        -0.1945    4.8888   -5.0049 H         1 <0>         0.1834
@<TRIPOS>BOND
     1    1    2 1
     2    1   35 1
     3    1   36 1
     4    1   37 1
     5    2    3 2
     6    2    4 am
     7    4    5 1
     8    4   38 1
     9    5   10 ar
    10    5    6 ar
    11    6    7 ar
    12    6   39 1
    13    7    8 ar
    14    7   13 1
    15    8    9 ar
    16    8   40 1
    17    9   10 ar
    18    9   41 1
    19   10   11 1
    20   11   12 1
    21   12   42 1
    22   12   43 1
    23   12   44 1
    24   13   14 am
    25   13   45 1
    26   14   15 2
    27   14   16 1
    28   16   25 ar
    29   16   17 ar
    30   17   18 ar
    31   17   46 1
    32   18   23 ar
    33   18   19 ar
    34   19   20 ar
    35   19   47 1
    36   20   21 ar
    37   20   48 1
    38   21   22 ar
    39   21   49 1
    40   22   23 ar
    41   22   50 1
    42   23   24 ar
    43   24   25 ar
    44   24   51 1
    45   25   26 1
    46   26   27 1
    47   27   28 2
    48   27   29 2
    49   27   30 1
    50   30   34 1
    51   30   31 2
    52   31   32 1
    53   31   52 1
    54   32   33 2
    55   32   53 1
    56   33   34 1
    57   33   54 1
@<TRIPOS>MOLECULE
ZINC13036149
   49    51     0     0     0
SMALL
USER_CHARGES

@<TRIPOS>ATOM
      1 C1         -2.4600   -4.0849    7.0432 C.3       1 <0>        -0.1092
      2 C2         -2.3858   -3.2618    5.7830 C.ar      1 <0>        -0.1265
      3 C3         -3.3694   -2.3346    5.5078 C.ar      1 <0>        -0.0213
      4 C4         -3.2987   -1.5723    4.3393 C.ar      1 <0>        -0.1506
      5 C5         -2.2305   -1.7554    3.4572 C.ar      1 <0>         0.0165
      6 C6         -1.2545   -2.6860    3.7453 C.ar      1 <0>        -0.6883
      7 C7         -1.3283   -3.4340    4.9075 C.ar      1 <0>         0.0027
      8 C8         -0.2545   -4.4446    5.2183 C.3       1 <0>        -0.1385
      9 S1          0.0933   -2.9186    2.6345 S.o2      1 <0>         2.6889
     10 O1          0.2113   -4.3194    2.4268 O.2       1 <0>        -0.9514
     11 O2         -0.0994   -2.0034    1.5647 O.2       1 <0>        -0.9472
     12 N1          1.4675   -2.4400    3.4251 N.pl3     1 <0>        -1.0621
     13 C9          1.6011   -1.1179    3.8553 C.ar      1 <0>         0.2069
     14 C10         1.2762   -0.0717    3.0012 C.ar      1 <0>        -0.1681
     15 C11         1.4090    1.2343    3.4300 C.ar      1 <0>         0.0111
     16 C12         1.8653    1.5012    4.7078 C.ar      1 <0>        -0.6446
     17 C13         2.1897    0.4621    5.5607 C.ar      1 <0>        -0.0010
     18 C14         2.0537   -0.8464    5.1403 C.ar      1 <0>        -0.1512
     19 S2          2.0344    3.1690    5.2504 S.o2      1 <0>         2.6185
     20 O3          2.9969    3.1604    6.2958 O.2       1 <0>        -0.9942
     21 O4          2.1862    3.9629    4.0817 O.2       1 <0>        -0.9902
     22 N2          0.5933    3.6089    5.9375 N.2       1 <0>        -1.0000
     23 C15         0.4420    4.8201    6.4319 C.2       1 <0>         0.5188
     24 C16        -0.7856    5.1986    7.0251 C.2       1 <0>        -0.1541
     25 C17        -0.9211    6.4529    7.5292 C.2       1 <0>        -0.0161
     26 C18         0.1560    7.3530    7.4543 C.2       1 <0>        -0.2095
     27 C19         1.3210    6.9781    6.8856 C.2       1 <0>         0.1273
     28 N3          1.4772    5.7222    6.3798 N.pl3     1 <0>        -0.6260
     29 C20        -4.3470   -0.5789    4.0378 C.2       1 <0>         0.5224
     30 O5         -5.2808   -0.4213    4.8116 O.co2     1 <0>        -0.6840
     31 O6         -4.2823    0.0869    3.0141 O.co2     1 <0>        -0.6780
     32 H1         -1.9448   -3.5624    7.8492 H         1 <0>         0.0672
     33 H2         -3.5041   -4.2363    7.3173 H         1 <0>         0.0673
     34 H3         -1.9849   -5.0512    6.8745 H         1 <0>         0.0659
     35 H4         -4.1923   -2.1986    6.1939 H         1 <0>         0.1359
     36 H5         -2.1696   -1.1697    2.5518 H         1 <0>         0.1481
     37 H6         -0.4864   -5.3860    4.7202 H         1 <0>         0.0920
     38 H7          0.7072   -4.0735    4.8641 H         1 <0>         0.0574
     39 H8         -0.2076   -4.6053    6.2954 H         1 <0>         0.0820
     40 H9          2.1796   -3.0778    3.5893 H         1 <0>         0.4272
     41 H10         0.9205   -0.2794    2.0029 H         1 <0>         0.1678
     42 H11         1.1566    2.0482    2.7665 H         1 <0>         0.1484
     43 H12         2.5457    0.6739    6.5580 H         1 <0>         0.1435
     44 H13         2.3029   -1.6576    5.8083 H         1 <0>         0.1395
     45 H14        -1.6060    4.4981    7.0763 H         1 <0>         0.1686
     46 H15        -1.8519    6.7571    7.9848 H         1 <0>         0.1497
     47 H16         0.0504    8.3507    7.8540 H         1 <0>         0.1535
     48 H17         2.1404    7.6798    6.8348 H         1 <0>         0.1729
     49 H18         2.3216    5.4653    5.9775 H         1 <0>         0.4115
@<TRIPOS>BOND
     1    1    2 1
     2    1   32 1
     3    1   33 1
     4    1   34 1
     5    2    7 ar
     6    2    3 ar
     7    3    4 ar
     8    3   35 1
     9    4    5 ar
    10    4   29 1
    11    5    6 ar
    12    5   36 1
    13    6    7 ar
    14    6    9 1
    15    7    8 1
    16    8   37 1
    17    8   38 1
    18    8   39 1
    19    9   10 2
    20    9   11 2
    21    9   12 1
    22   12   13 1
    23   12   40 1
    24   13   18 ar
    25   13   14 ar
    26   14   15 ar
    27   14   41 1
    28   15   16 ar
    29   15   42 1
    30   16   17 ar
    31   16   19 1
    32   17   18 ar
    33   17   43 1
    34   18   44 1
    35   19   20 2
    36   19   21 2
    37   19   22 1
    38   22   23 2
    39   23   28 1
    40   23   24 1
    41   24   25 2
    42   24   45 1
    43   25   26 1
    44   25   46 1
    45   26   27 2
    46   26   47 1
    47   27   28 1
    48   27   48 1
    49   28   49 1
    50   29   30 2
    51   29   31 1
@<TRIPOS>MOLECULE
ZINC20153100
   52    54     0     0     0
SMALL
USER_CHARGES

@<TRIPOS>ATOM
      1 C1          1.3226   -1.8124   -2.6956 C.3       1 <0>        -0.1476
      2 C2          0.3688   -1.6669   -1.5081 C.3       1 <0>        -0.0894
      3 C3          1.0824   -2.0989   -0.2250 C.3       1 <0>        -0.1281
      4 C4          0.1360   -1.9192    0.9661 C.3       1 <0>         0.1447
      5 N1         -1.1103   -2.6483    0.6941 N.pl3     1 <0>        -0.6759
      6 C5         -1.8300   -2.3747   -0.5573 C.3       1 <0>         0.1464
      7 C6         -0.8616   -2.5493   -1.7314 C.3       1 <0>        -0.1291
      8 C7         -1.5990   -3.5796    1.6032 C.ar      1 <0>         0.2755
      9 C8         -1.2753   -4.9262    1.4601 C.ar      1 <0>        -0.1320
     10 C9         -1.7520   -5.8458    2.3503 C.ar      1 <0>        -0.0359
     11 C10        -2.5679   -5.4372    3.4099 C.ar      1 <0>        -0.1362
     12 C11        -2.8945   -4.0854    3.5559 C.ar      1 <0>         0.0122
     13 C12        -2.4064   -3.1629    2.6583 C.ar      1 <0>        -0.0706
     14 N2         -2.7439   -1.7299    2.8115 N.pl3     1 <0>         0.0373
     15 O1         -3.3638   -1.3550    3.7794 O.2       1 <0>        -0.1691
     16 O2         -2.3997   -0.9343    1.9688 O.3       1 <0>        -0.1280
     17 C13        -3.0831   -6.4297    4.3708 C.2       1 <0>         0.5359
     18 O3         -3.7924   -6.0730    5.2916 O.2       1 <0>        -0.3905
     19 N3         -2.7679   -7.7323    4.2285 N.am      1 <0>        -0.6416
     20 C14        -3.2388   -8.6395    5.1070 C.2       1 <0>         0.5007
     21 S1         -4.2376   -8.1372    6.4035 S.2       1 <0>        -0.4739
     22 N4         -2.9236   -9.9421    4.9647 N.pl3     1 <0>        -0.6042
     23 C15        -3.5043  -10.8941    5.7984 C.ar      1 <0>         0.0903
     24 C16        -4.8561  -10.8041    6.1189 C.ar      1 <0>        -0.0844
     25 C17        -5.4317  -11.7395    6.9395 C.ar      1 <0>        -0.0783
     26 C18        -4.6585  -12.7860    7.4547 C.ar      1 <0>        -0.1153
     27 C19        -3.3002  -12.8732    7.1298 C.ar      1 <0>        -0.0832
     28 C20        -2.7331  -11.9367    6.3047 C.ar      1 <0>        -0.1313
     29 C21        -5.2725  -13.7921    8.3365 C.2       1 <0>         0.5175
     30 O4         -6.4601  -13.7141    8.6199 O.co2     1 <0>        -0.6830
     31 O5         -4.5951  -14.7064    8.7861 O.co2     1 <0>        -0.6869
     32 H1          0.8149   -1.5036   -3.6093 H         1 <0>         0.0544
     33 H2          2.1990   -1.1840   -2.5367 H         1 <0>         0.0542
     34 H3          1.6334   -2.8532   -2.7865 H         1 <0>         0.0524
     35 H4          0.0577   -0.6262   -1.4176 H         1 <0>         0.0735
     36 H5          1.3719   -3.1467   -0.3049 H         1 <0>         0.0632
     37 H6          1.9715   -1.4855   -0.0791 H         1 <0>         0.0713
     38 H7          0.6029   -2.3172    1.8670 H         1 <0>         0.0632
     39 H8         -0.0826   -0.8601    1.1026 H         1 <0>         0.0678
     40 H9         -2.6603   -3.0732   -0.6615 H         1 <0>         0.0651
     41 H10        -2.2089   -1.3527   -0.5450 H         1 <0>         0.0681
     42 H11        -1.3561   -2.2564   -2.6575 H         1 <0>         0.0713
     43 H12        -0.5538   -3.5928   -1.7970 H         1 <0>         0.0630
     44 H13        -0.6456   -5.2445    0.6424 H         1 <0>         0.1533
     45 H14        -1.4989   -6.8895    2.2355 H         1 <0>         0.1420
     46 H15        -3.5243   -3.7655    4.3728 H         1 <0>         0.1701
     47 H16        -2.2020   -8.0169    3.4939 H         1 <0>         0.4050
     48 H17        -2.2920  -10.2164    4.2814 H         1 <0>         0.4021
     49 H18        -5.4521   -9.9961    5.7209 H         1 <0>         0.1320
     50 H19        -6.4802  -11.6686    7.1883 H         1 <0>         0.1334
     51 H20        -2.7003  -13.6794    7.5255 H         1 <0>         0.1327
     52 H21        -1.6857  -12.0056    6.0502 H         1 <0>         0.1162
@<TRIPOS>BOND
     1    1    2 1
     2    1   32 1
     3    1   33 1
     4    1   34 1
     5    2    7 1
     6    2    3 1
     7    2   35 1
     8    3    4 1
     9    3   36 1
    10    3   37 1
    11    4    5 1
    12    4   38 1
    13    4   39 1
    14    5    6 1
    15    5    8 1
    16    6    7 1
    17    6   40 1
    18    6   41 1
    19    7   42 1
    20    7   43 1
    21    8   13 ar
    22    8    9 ar
    23    9   10 ar
    24    9   44 1
    25   10   11 ar
    26   10   45 1
    27   11   12 ar
    28   11   17 1
    29   12   13 ar
    30   12   46 1
    31   13   14 1
    32   14   15 2
    33   14   16 1
    34   17   18 2
    35   17   19 am
    36   19   20 1
    37   19   47 1
    38   20   21 2
    39   20   22 1
    40   22   23 1
    41   22   48 1
    42   23   28 ar
    43   23   24 ar
    44   24   25 ar
    45   24   49 1
    46   25   26 ar
    47   25   50 1
    48   26   27 ar
    49   26   29 1
    50   27   28 ar
    51   27   51 1
    52   28   52 1
    53   29   30 2
    54   29   31 1
@<TRIPOS>MOLECULE
ZINC02880205
   39    41     0     0     0
SMALL
USER_CHARGES
N-[(4-bromo-2-fluoro-phenyl)thiocarbamoyl]-5-(3-nitrophenyl)-furan-2-carboxamide
@<TRIPOS>ATOM
      1 C1         -1.1087    1.6569    0.0494 C.ar      1 <0>        -0.1072
      2 C2         -1.1411    3.0236   -0.1367 C.ar      1 <0>        -0.0425
      3 C3          0.0383    3.7654   -0.0454 C.ar      1 <0>        -0.0210
      4 C4          1.2427    3.1180    0.2394 C.ar      1 <0>        -0.0389
      5 C5          1.2597    1.7520    0.4284 C.ar      1 <0>        -0.0388
      6 C6          0.0870    1.0228    0.3364 C.ar      1 <0>        -0.0445
      7 N1          2.5350    1.0642    0.7308 N.pl3     1 <0>         0.0248
      8 O1          2.5515   -0.1421    0.8983 O.2       1 <0>        -0.1475
      9 O2          3.5679    1.7045    0.8120 O.3       1 <0>        -0.1546
     10 C7          0.0123    5.2280   -0.2485 C.2       1 <0>         0.0605
     11 C8         -1.0970    5.9728   -0.5310 C.2       1 <0>        -0.1843
     12 C9         -0.6815    7.3032   -0.6431 C.2       1 <0>        -0.0936
     13 C10         0.6791    7.3148   -0.4219 C.2       1 <0>        -0.0774
     14 O3          1.0750    6.0471   -0.1803 O.3       1 <0>        -0.1593
     15 C11         1.5431    8.4965   -0.4405 C.2       1 <0>         0.5852
     16 O4          1.0682    9.5940   -0.6669 O.2       1 <0>        -0.3767
     17 N2          2.8643    8.3691   -0.2069 N.am      1 <0>        -0.6354
     18 C12         3.6597    9.4570   -0.2240 C.2       1 <0>         0.5121
     19 S1          2.9917   11.0008   -0.5425 S.2       1 <0>        -0.4660
     20 N3          4.9809    9.3296    0.0095 N.pl3     1 <0>        -0.6186
     21 C13         5.8216   10.4446   -0.0970 C.ar      1 <0>         0.0988
     22 C14         5.4656   11.6440    0.5043 C.ar      1 <0>        -0.0347
     23 C15         6.2967   12.7423    0.3982 C.ar      1 <0>        -0.0924
     24 C16         7.4839   12.6487   -0.3062 C.ar      1 <0>        -0.0540
     25 C17         7.8428   11.4553   -0.9071 C.ar      1 <0>        -0.1236
     26 C18         7.0174   10.3508   -0.8005 C.ar      1 <0>         0.1102
     27 F1          7.3701    9.1839   -1.3828 F         1 <0>        -0.1278
     28 Br1         8.6180   14.1552   -0.4483 Br        1 <0>        -0.0265
     29 H1         -2.0194    1.0813   -0.0253 H         1 <0>         0.1598
     30 H2         -2.0758    3.5179   -0.3563 H         1 <0>         0.1536
     31 H3          2.1586    3.6858    0.3111 H         1 <0>         0.1585
     32 H4          0.1060   -0.0467    0.4849 H         1 <0>         0.1611
     33 H5         -2.1055    5.6038   -0.6456 H         1 <0>         0.1687
     34 H6         -1.3060    8.1569   -0.8613 H         1 <0>         0.1745
     35 H7          3.2428    7.4944   -0.0265 H         1 <0>         0.4175
     36 H8          5.3495    8.4656    0.2515 H         1 <0>         0.4141
     37 H9          4.5395   11.7184    1.0550 H         1 <0>         0.1628
     38 H10         6.0195   13.6754    0.8661 H         1 <0>         0.1496
     39 H11         8.7703   11.3850   -1.4560 H         1 <0>         0.1534
@<TRIPOS>BOND
     1    1    6 ar
     2    1    2 ar
     3    1   29 1
     4    2    3 ar
     5    2   30 1
     6    3    4 ar
     7    3   10 1
     8    4    5 ar
     9    4   31 1
    10    5    6 ar
    11    5    7 1
    12    6   32 1
    13    7    8 2
    14    7    9 1
    15   10   14 1
    16   10   11 2
    17   11   12 1
    18   11   33 1
    19   12   13 2
    20   12   34 1
    21   13   14 1
    22   13   15 1
    23   15   16 2
    24   15   17 am
    25   17   18 1
    26   17   35 1
    27   18   19 2
    28   18   20 1
    29   20   21 1
    30   20   36 1
    31   21   26 ar
    32   21   22 ar
    33   22   23 ar
    34   22   37 1
    35   23   24 ar
    36   23   38 1
    37   24   25 ar
    38   24   28 1
    39   25   26 ar
    40   25   39 1
    41   26   27 1
@<TRIPOS>MOLECULE
ZINC14169247
   53    56     0     0     0
SMALL
USER_CHARGES
N-[4-[(3,4-dimethyl-2H-isoxazol-5-ylidene)amino]sulfonylphenyl]-3-(p-tolyl)thiophene-2-carboxamide
@<TRIPOS>ATOM
      1 C1        -10.3836   -2.9161   -6.3317 C.3       1 <0>        -0.1177
      2 C2        -10.1127   -3.7727   -5.1218 C.ar      1 <0>        -0.0730
      3 C3        -10.0468   -5.1484   -5.2525 C.ar      1 <0>        -0.1289
      4 C4         -9.7991   -5.9380   -4.1483 C.ar      1 <0>        -0.0935
      5 C5         -9.6149   -5.3466   -2.8988 C.ar      1 <0>        -0.0597
      6 C6         -9.6877   -3.9596   -2.7725 C.ar      1 <0>        -0.0497
      7 C7         -9.9312   -3.1802   -3.8849 C.ar      1 <0>        -0.1239
      8 C8         -9.3491   -6.1888   -1.7093 C.2       1 <0>         0.0210
      9 C9        -10.1389   -7.2824   -1.4009 C.2       1 <0>        -0.1681
     10 C10        -9.8543   -8.0130   -0.2962 C.2       1 <0>        -0.1693
     11 S1         -8.4642   -7.2195    0.3681 S.3       1 <0>         0.1476
     12 C11        -8.2850   -5.9220   -0.8427 C.2       1 <0>        -0.2495
     13 C12        -7.2883   -4.8535   -0.9083 C.2       1 <0>         0.6052
     14 O1         -7.3205   -4.0459   -1.8189 O.2       1 <0>        -0.4859
     15 N1         -6.3341   -4.7629    0.0392 N.am      1 <0>        -0.6714
     16 C13        -5.4409   -3.6871    0.0314 C.ar      1 <0>         0.2025
     17 C14        -4.9870   -3.1506    1.2295 C.ar      1 <0>        -0.1646
     18 C15        -4.1052   -2.0878    1.2182 C.ar      1 <0>         0.0028
     19 C16        -3.6741   -1.5578    0.0159 C.ar      1 <0>        -0.6512
     20 C17        -4.1284   -2.0860   -1.1787 C.ar      1 <0>         0.0030
     21 C18        -5.0059   -3.1524   -1.1745 C.ar      1 <0>        -0.1407
     22 S2         -2.5490   -0.2018    0.0060 S.o2      1 <0>         2.6289
     23 O2         -2.7038    0.4635    1.2521 O.2       1 <0>        -0.9813
     24 O3         -2.7233    0.4616   -1.2385 O.2       1 <0>        -0.9800
     25 N2         -1.0190   -0.8351   -0.0055 N.2       1 <0>        -0.9427
     26 C19         0.0244   -0.0341   -0.0143 C.2       1 <0>         0.4475
     27 C20         1.3935   -0.4134   -0.0248 C.2       1 <0>        -0.2421
     28 C21         2.0655    0.7638   -0.0305 C.2       1 <0>         0.1495
     29 N3          1.1393    1.7528   -0.0237 N.pl3     1 <0>        -0.5031
     30 H1          1.3537    2.6988   -0.0263 H         1 <0>         0.4685
     31 O4          0.0125    1.3128   -0.0148 O.3       1 <0>        -0.0597
     32 C22         3.5621    0.9397   -0.0422 C.3       1 <0>        -0.1017
     33 C23         1.9678   -1.8067   -0.0287 C.3       1 <0>        -0.0587
     34 H2        -11.4586   -2.7749   -6.4436 H         1 <0>         0.0714
     35 H3         -9.9010   -1.9468   -6.2060 H         1 <0>         0.0675
     36 H4         -9.9871   -3.4069   -7.2205 H         1 <0>         0.0668
     37 H5        -10.1900   -5.6052   -6.2205 H         1 <0>         0.1232
     38 H6         -9.7483   -7.0119   -4.2515 H         1 <0>         0.1213
     39 H7         -9.5503   -3.4963   -1.8067 H         1 <0>         0.1189
     40 H8         -9.9838   -2.1058   -3.7891 H         1 <0>         0.1225
     41 H9        -10.9752   -7.5475   -2.0308 H         1 <0>         0.1456
     42 H10       -10.3706   -8.8835    0.0806 H         1 <0>         0.1957
     43 H11        -6.2670   -5.4440    0.7266 H         1 <0>         0.4130
     44 H12        -5.3231   -3.5643    2.1688 H         1 <0>         0.1382
     45 H13        -3.7522   -1.6699    2.1494 H         1 <0>         0.1453
     46 H14        -3.7935   -1.6667   -2.1159 H         1 <0>         0.1443
     47 H15        -5.3569   -3.5673   -2.1078 H         1 <0>         0.1511
     48 H16         3.9150    0.9817   -1.0726 H         1 <0>         0.1016
     49 H17         3.8231    1.8663    0.4692 H         1 <0>         0.0865
     50 H18         4.0308    0.0985    0.4684 H         1 <0>         0.1055
     51 H19         2.0978   -2.1432   -1.0572 H         1 <0>         0.0713
     52 H20         2.9332   -1.8031    0.4773 H         1 <0>         0.0696
     53 H21         1.2876   -2.4814    0.4911 H         1 <0>         0.0803
@<TRIPOS>BOND
     1    1    2 1
     2    1   34 1
     3    1   35 1
     4    1   36 1
     5    2    7 ar
     6    2    3 ar
     7    3    4 ar
     8    3   37 1
     9    4    5 ar
    10    4   38 1
    11    5    6 ar
    12    5    8 1
    13    6    7 ar
    14    6   39 1
    15    7   40 1
    16    8   12 2
    17    8    9 1
    18    9   10 2
    19    9   41 1
    20   10   11 1
    21   10   42 1
    22   11   12 1
    23   12   13 1
    24   13   14 2
    25   13   15 am
    26   15   16 1
    27   15   43 1
    28   16   21 ar
    29   16   17 ar
    30   17   18 ar
    31   17   44 1
    32   18   19 ar
    33   18   45 1
    34   19   20 ar
    35   19   22 1
    36   20   21 ar
    37   20   46 1
    38   21   47 1
    39   22   23 2
    40   22   24 2
    41   22   25 1
    42   25   26 2
    43   26   31 1
    44   26   27 1
    45   27   28 2
    46   27   33 1
    47   28   29 1
    48   28   32 1
    49   29   30 1
    50   29   31 1
    51   32   48 1
    52   32   49 1
    53   32   50 1
    54   33   51 1
    55   33   52 1
    56   33   53 1
@<TRIPOS>MOLECULE
ZINC24033259
   55    58     0     0     0
SMALL
USER_CHARGES
(2S)-1-(benzenesulfonyl)-N-[3-(thiophene-2-carbonylamino)phenyl]piperidine-2-carboxamide
@<TRIPOS>ATOM
      1 C1         -5.9247    1.1033   -1.9582 C.ar      1 <0>        -0.0623
      2 C2         -5.7989    1.3741   -0.6085 C.ar      1 <0>        -0.1483
      3 C3         -4.8421    2.2700   -0.1695 C.ar      1 <0>        -0.0250
      4 C4         -4.0114    2.8956   -1.0803 C.ar      1 <0>        -0.6745
      5 C5         -4.1410    2.6292   -2.4306 C.ar      1 <0>         0.0104
      6 C6         -5.0943    1.7292   -2.8691 C.ar      1 <0>        -0.1464
      7 S1         -2.7922    4.0380   -0.5208 S.o2      1 <0>         2.6827
      8 O1         -3.3370    4.6872    0.6198 O.2       1 <0>        -0.9555
      9 O2         -2.3502    4.7537   -1.6662 O.2       1 <0>        -0.9366
     10 N1         -1.4986    3.1518    0.0118 N.pl3     1 <0>        -0.9874
     11 C7         -1.4517    2.6510    1.3923 C.3       1 <0>         0.1187
     12 C8         -1.2053    1.1394    1.3600 C.3       1 <0>        -0.1389
     13 C9          0.0561    0.8495    0.5434 C.3       1 <0>        -0.1164
     14 C10        -0.1416    1.3371   -0.8937 C.3       1 <0>        -0.1208
     15 C11        -0.3762    2.8510   -0.8873 C.3       1 <0>         0.1422
     16 H1          0.5077    3.3942   -0.5219 H         1 <0>         0.0993
     17 C12        -0.7036    3.3173   -2.2824 C.2       1 <0>         0.5198
     18 O3         -1.5894    2.7768   -2.9103 O.2       1 <0>        -0.5191
     19 N2         -0.0121    4.3351   -2.8324 N.am      1 <0>        -0.6600
     20 C13        -0.2899    4.7427   -4.1419 C.ar      1 <0>         0.1922
     21 C14        -0.6863    3.8091   -5.0915 C.ar      1 <0>        -0.1405
     22 C15        -0.9653    4.2113   -6.3833 C.ar      1 <0>        -0.0820
     23 C16        -0.8411    5.5409   -6.7381 C.ar      1 <0>        -0.1640
     24 C17        -0.4402    6.4785   -5.7947 C.ar      1 <0>         0.1682
     25 C18        -0.1642    6.0784   -4.4947 C.ar      1 <0>        -0.1448
     26 N3         -0.3143    7.8239   -6.1546 N.am      1 <0>        -0.6780
     27 C19         0.6343    8.5894   -5.5795 C.2       1 <0>         0.6082
     28 O4          1.4321    8.0917   -4.8066 O.2       1 <0>        -0.5102
     29 C20         0.7052   10.0210   -5.8847 C.2       1 <0>        -0.2422
     30 C21         1.5884   10.9745   -5.4027 C.2       1 <0>        -0.0662
     31 C22         1.4329   12.2590   -5.8610 C.2       1 <0>        -0.1782
     32 C23         0.4336   12.5333   -6.7401 C.2       1 <0>        -0.1763
     33 S2         -0.3277   10.9925   -6.9674 S.3       1 <0>         0.1403
     34 H2         -6.6720    0.4031   -2.3012 H         1 <0>         0.1284
     35 H3         -6.4478    0.8854    0.1031 H         1 <0>         0.1302
     36 H4         -4.7438    2.4816    0.8850 H         1 <0>         0.1305
     37 H5         -3.4949    3.1212   -3.1425 H         1 <0>         0.1598
     38 H6         -5.1928    1.5180   -3.9236 H         1 <0>         0.1300
     39 H7         -0.6362    3.1504    1.9360 H         1 <0>         0.0819
     40 H8         -2.4087    2.8624    1.8918 H         1 <0>         0.0930
     41 H9         -1.0727    0.7675    2.3867 H         1 <0>         0.0811
     42 H10        -2.0673    0.6372    0.8966 H         1 <0>         0.0706
     43 H11         0.9125    1.3732    0.9932 H         1 <0>         0.0690
     44 H12         0.2495   -0.2334    0.5393 H         1 <0>         0.0730
     45 H13         0.7561    1.1062   -1.4860 H         1 <0>         0.0808
     46 H14        -1.0127    0.8315   -1.3359 H         1 <0>         0.0846
     47 H15         0.7706    4.8453   -2.2519 H         1 <0>         0.4341
     48 H16        -0.7800    2.7684   -4.8185 H         1 <0>         0.1368
     49 H17        -1.2769    3.4842   -7.1186 H         1 <0>         0.1281
     50 H18        -1.0557    5.8515   -7.7500 H         1 <0>         0.1249
     51 H19         0.1474    6.8054   -3.7593 H         1 <0>         0.1368
     52 H20        -0.9895    8.2575   -6.9071 H         1 <0>         0.4332
     53 H21         2.3668   10.7175   -4.6995 H         1 <0>         0.1488
     54 H22         2.0944   13.0433   -5.5238 H         1 <0>         0.1431
     55 H23         0.1759   13.4815   -7.1884 H         1 <0>         0.1927
@<TRIPOS>BOND
     1    1    6 ar
     2    1    2 ar
     3    1   34 1
     4    2    3 ar
     5    2   35 1
     6    3    4 ar
     7    3   36 1
     8    4    5 ar
     9    4    7 1
    10    5    6 ar
    11    5   37 1
    12    6   38 1
    13    7    8 2
    14    7    9 2
    15    7   10 1
    16   10   15 1
    17   10   11 1
    18   11   12 1
    19   11   39 1
    20   11   40 1
    21   12   13 1
    22   12   41 1
    23   12   42 1
    24   13   14 1
    25   13   43 1
    26   13   44 1
    27   14   15 1
    28   14   45 1
    29   14   46 1
    30   15   16 1
    31   15   17 1
    32   17   18 2
    33   17   19 am
    34   19   20 1
    35   19   47 1
    36   20   25 ar
    37   20   21 ar
    38   21   22 ar
    39   21   48 1
    40   22   23 ar
    41   22   49 1
    42   23   24 ar
    43   23   50 1
    44   24   25 ar
    45   24   26 1
    46   25   51 1
    47   26   27 am
    48   26   52 1
    49   27   28 2
    50   27   29 1
    51   29   33 1
    52   29   30 2
    53   30   31 1
    54   30   53 1
    55   31   32 2
    56   31   54 1
    57   32   33 1
    58   32   55 1
@<TRIPOS>MOLECULE
ZINC08683797
   60    63     0     0     0
SMALL
USER_CHARGES

@<TRIPOS>ATOM
      1 C1         -0.0184    1.5028    0.0103 C.3       1 <0>        -0.1121
      2 C2          0.0021   -0.0041    0.0020 C.ar      1 <0>        -0.0709
      3 C3          0.0060   -0.6983   -1.1990 C.ar      1 <0>        -0.1039
      4 C4          0.0249   -2.0683   -1.2342 C.ar      1 <0>        -0.0381
      5 C5          0.0407   -2.8215   -0.0377 C.ar      1 <0>         0.1175
      6 C6          0.0362   -2.0811    1.1660 C.ar      1 <0>        -0.1429
      7 C7          0.0229   -0.7091    1.1917 C.ar      1 <0>        -0.0646
      8 S1          0.0599   -3.3609    2.3981 S.3       1 <0>        -0.0207
      9 C8          0.0739   -4.7525    1.2767 C.2       1 <0>         0.4028
     10 N1          0.0600   -4.1654    0.1016 N.2       1 <0>        -0.5594
     11 N2          0.0940   -6.1007    1.5706 N.pl3     1 <0>        -0.4658
     12 N3          0.1058   -6.5266    2.9052 N.am      1 <0>        -0.5093
     13 C9          0.1255   -7.8433    3.1921 C.2       1 <0>         0.5623
     14 O1          0.1330   -8.6613    2.2930 O.2       1 <0>        -0.5112
     15 C10         0.1380   -8.2929    4.6006 C.ar      1 <0>        -0.0722
     16 C11         0.1237   -7.3563    5.6354 C.ar      1 <0>        -0.1074
     17 C12         0.1355   -7.7825    6.9474 C.ar      1 <0>        -0.0220
     18 C13         0.1615   -9.1348    7.2386 C.ar      1 <0>        -0.6514
     19 C14         0.1758  -10.0684    6.2175 C.ar      1 <0>        -0.0201
     20 C15         0.1584   -9.6557    4.9012 C.ar      1 <0>        -0.0706
     21 S2          0.1770   -9.6705    8.9171 S.o2      1 <0>         2.6859
     22 O2          0.7520  -10.9700    8.9233 O.2       1 <0>        -0.9466
     23 O3          0.7107   -8.5977    9.6809 O.2       1 <0>        -0.9476
     24 N4         -1.4003   -9.8486    9.3888 N.pl3     1 <0>        -0.9911
     25 C16        -2.1362   -8.7233    9.9810 C.3       1 <0>         0.1228
     26 C17        -3.4354   -8.5161    9.1962 C.3       1 <0>        -0.1104
     27 H1         -3.2001   -8.2042    8.1787 H         1 <0>         0.0784
     28 C18        -4.2194   -9.8299    9.1594 C.3       1 <0>        -0.1078
     29 C19        -3.3903  -10.9009    8.4468 C.3       1 <0>        -0.1079
     30 H2         -3.9586  -11.8298    8.4003 H         1 <0>         0.0862
     31 C20        -2.0924  -11.1333    9.2175 C.3       1 <0>         0.1223
     32 C21        -3.0611  -10.4320    7.0282 C.3       1 <0>        -0.1563
     33 C22        -4.2780   -7.4369    9.8791 C.3       1 <0>        -0.1487
     34 C23         0.0284   -2.7797   -2.5627 C.3       1 <0>        -0.1114
     35 H3          1.0042    1.8801    0.0026 H         1 <0>         0.0753
     36 H4         -0.5455    1.8639   -0.8728 H         1 <0>         0.0717
     37 H5         -0.5286    1.8543    0.9071 H         1 <0>         0.0698
     38 H6         -0.0066   -0.1467   -2.1275 H         1 <0>         0.1340
     39 H7          0.0243   -0.1832    2.1350 H         1 <0>         0.1325
     40 H8          0.1000   -6.7534    0.8530 H         1 <0>         0.4538
     41 H9          0.0999   -5.8739    3.6227 H         1 <0>         0.4264
     42 H10         0.1038   -6.3004    5.4094 H         1 <0>         0.1355
     43 H11         0.1248   -7.0588    7.7491 H         1 <0>         0.1504
     44 H12         0.1961  -11.1225    6.4515 H         1 <0>         0.1513
     45 H13         0.1647  -10.3855    4.1051 H         1 <0>         0.1516
     46 H14        -2.3698   -8.9467   11.0220 H         1 <0>         0.0798
     47 H15        -1.5284   -7.8201    9.9265 H         1 <0>         0.0907
     48 H16        -4.4331  -10.1540   10.1779 H         1 <0>         0.0671
     49 H17        -5.1560   -9.6790    8.6226 H         1 <0>         0.0667
     50 H18        -1.4557  -11.8198    8.6594 H         1 <0>         0.0920
     51 H19        -2.3223  -11.5577   10.1949 H         1 <0>         0.0796
     52 H20        -2.4918   -9.5037    7.0752 H         1 <0>         0.0585
     53 H21        -2.4706  -11.1950    6.5211 H         1 <0>         0.0554
     54 H22        -3.9865  -10.2631    6.4774 H         1 <0>         0.0585
     55 H23        -3.7178   -6.5023    9.9072 H         1 <0>         0.0583
     56 H24        -5.2023   -7.2899    9.3204 H         1 <0>         0.0594
     57 H25        -4.5141   -7.7497   10.8962 H         1 <0>         0.0588
     58 H26         1.0568   -2.9369   -2.8880 H         1 <0>         0.0727
     59 H27        -0.4716   -3.7428   -2.4604 H         1 <0>         0.0744
     60 H28        -0.4975   -2.1739   -3.3006 H         1 <0>         0.0680
@<TRIPOS>BOND
     1    1    2 1
     2    1   35 1
     3    1   36 1
     4    1   37 1
     5    2    7 ar
     6    2    3 ar
     7    3    4 ar
     8    3   38 1
     9    4    5 ar
    10    4   34 1
    11    5   10 1
    12    5    6 ar
    13    6    7 ar
    14    6    8 1
    15    7   39 1
    16    8    9 1
    17    9   10 2
    18    9   11 1
    19   11   12 1
    20   11   40 1
    21   12   13 am
    22   12   41 1
    23   13   14 2
    24   13   15 1
    25   15   20 ar
    26   15   16 ar
    27   16   17 ar
    28   16   42 1
    29   17   18 ar
    30   17   43 1
    31   18   19 ar
    32   18   21 1
    33   19   20 ar
    34   19   44 1
    35   20   45 1
    36   21   22 2
    37   21   23 2
    38   21   24 1
    39   24   31 1
    40   24   25 1
    41   25   26 1
    42   25   46 1
    43   25   47 1
    44   26   27 1
    45   26   28 1
    46   26   33 1
    47   28   29 1
    48   28   48 1
    49   28   49 1
    50   29   30 1
    51   29   31 1
    52   29   32 1
    53   31   50 1
    54   31   51 1
    55   32   52 1
    56   32   53 1
    57   32   54 1
    58   33   55 1
    59   33   56 1
    60   33   57 1
    61   34   58 1
    62   34   59 1
    63   34   60 1
@<TRIPOS>MOLECULE
ZINC46570297
   59    62     0     0     0
SMALL
USER_CHARGES

@<TRIPOS>ATOM
      1 C1          0.0146    0.0194    0.1518 C.3       1 <0>        -0.1579
      2 C2         -0.1167   -1.4647   -0.1964 C.3       1 <0>         0.1849
      3 H1          0.3303   -1.6497   -1.1731 H         1 <0>         0.0990
      4 C3          0.5935   -2.2899    0.8456 C.ar      1 <0>        -0.0954
      5 C4         -0.0239   -2.5594    2.0527 C.ar      1 <0>        -0.1165
      6 C5          0.6276   -3.3163    3.0084 C.ar      1 <0>        -0.1145
      7 C6          1.8963   -3.8042    2.7569 C.ar      1 <0>        -0.1171
      8 C7          2.5133   -3.5355    1.5494 C.ar      1 <0>        -0.1140
      9 C8          1.8601   -2.7821    0.5920 C.ar      1 <0>        -0.1067
     10 N1         -1.5338   -1.8348   -0.2299 N.am      1 <0>        -0.7189
     11 C9         -2.2547   -1.6404   -1.3519 C.2       1 <0>         0.5689
     12 O1         -1.7290   -1.1579   -2.3364 O.2       1 <0>        -0.5409
     13 C10        -3.6817   -2.0132   -1.3856 C.ar      1 <0>        -0.1682
     14 C11        -4.2753   -2.6217   -0.2773 C.ar      1 <0>        -0.0701
     15 C12        -5.6088   -2.9671   -0.3148 C.ar      1 <0>        -0.1380
     16 C13        -6.3656   -2.7138   -1.4476 C.ar      1 <0>        -0.0719
     17 C14        -5.7927   -2.1135   -2.5505 C.ar      1 <0>        -0.1245
     18 C15        -4.4519   -1.7533   -2.5288 C.ar      1 <0>         0.2072
     19 N2         -3.8732   -1.1422   -3.6386 N.am      1 <0>        -0.6616
     20 C16        -4.1474   -1.5966   -4.8775 C.2       1 <0>         0.5216
     21 O2         -4.9722   -2.4719   -5.0336 O.2       1 <0>        -0.5187
     22 C17        -3.4291   -1.0170   -6.0688 C.3       1 <0>        -0.1030
     23 C18        -3.7114    0.4848   -6.1533 C.3       1 <0>        -0.1288
     24 C19        -2.9521    1.0767   -7.3448 C.3       1 <0>         0.1222
     25 N3         -3.3122    0.3260   -8.5553 N.pl3     1 <0>        -0.5954
     26 C20        -3.1652   -1.1359   -8.5499 C.3       1 <0>         0.1205
     27 C21        -3.9222   -1.7031   -7.3448 C.3       1 <0>        -0.1153
     28 C22        -3.7839    0.9867   -9.6850 C.ar      1 <0>         0.3473
     29 C23        -3.7076    2.3772   -9.7662 C.ar      1 <0>        -0.1691
     30 C24        -4.1910    2.9874  -10.9121 C.ar      1 <0>        -0.0619
     31 C25        -4.7216    2.1776  -11.9088 C.ar      1 <0>         0.0575
     32 N4         -4.7539    0.8692  -11.7473 N.ar      1 <0>        -0.1850
     33 N5         -4.3025    0.2979  -10.6904 N.ar      1 <0>        -0.2848
     34 Cl1        -5.3424    2.8881  -13.3660 Cl        1 <0>        -0.0132
     35 H2          1.0690    0.2948    0.1767 H         1 <0>         0.0699
     36 H3         -0.4991    0.6162   -0.6018 H         1 <0>         0.0659
     37 H4         -0.4324    0.2044    1.1286 H         1 <0>         0.0597
     38 H5         -1.0151   -2.1782    2.2492 H         1 <0>         0.1190
     39 H6          0.1455   -3.5263    3.9518 H         1 <0>         0.1250
     40 H7          2.4056   -4.3950    3.5039 H         1 <0>         0.1243
     41 H8          3.5047   -3.9164    1.3531 H         1 <0>         0.1257
     42 H9          2.3407   -2.5753   -0.3528 H         1 <0>         0.1251
     43 H10        -1.9532   -2.2198    0.5555 H         1 <0>         0.4001
     44 H11        -3.6898   -2.8216    0.6079 H         1 <0>         0.1275
     45 H12        -6.0662   -3.4378    0.5428 H         1 <0>         0.1323
     46 H13        -7.4100   -2.9880   -1.4676 H         1 <0>         0.1332
     47 H14        -6.3891   -1.9200   -3.4300 H         1 <0>         0.1396
     48 H15        -3.2729   -0.3897   -3.5199 H         1 <0>         0.4204
     49 H16        -2.3567   -1.1792   -5.9604 H         1 <0>         0.1075
     50 H17        -4.7810    0.6470   -6.2866 H         1 <0>         0.0770
     51 H18        -3.3812    0.9693   -5.2344 H         1 <0>         0.0844
     52 H19        -3.2267    2.1242   -7.4692 H         1 <0>         0.0897
     53 H20        -1.8791    0.9964   -7.1707 H         1 <0>         0.0797
     54 H21        -3.5805   -1.5483   -9.4694 H         1 <0>         0.1042
     55 H22        -2.1096   -1.3967   -8.4741 H         1 <0>         0.0710
     56 H23        -3.7420   -2.7757   -7.2741 H         1 <0>         0.0873
     57 H24        -4.9898   -1.5203   -7.4669 H         1 <0>         0.0777
     58 H25        -3.2851    2.9598   -8.9609 H         1 <0>         0.1567
     59 H26        -4.1568    4.0607  -11.0271 H         1 <0>         0.1593
@<TRIPOS>BOND
     1    1    2 1
     2    1   35 1
     3    1   36 1
     4    1   37 1
     5    2    3 1
     6    2    4 1
     7    2   10 1
     8    4    9 ar
     9    4    5 ar
    10    5    6 ar
    11    5   38 1
    12    6    7 ar
    13    6   39 1
    14    7    8 ar
    15    7   40 1
    16    8    9 ar
    17    8   41 1
    18    9   42 1
    19   10   11 am
    20   10   43 1
    21   11   12 2
    22   11   13 1
    23   13   18 ar
    24   13   14 ar
    25   14   15 ar
    26   14   44 1
    27   15   16 ar
    28   15   45 1
    29   16   17 ar
    30   16   46 1
    31   17   18 ar
    32   17   47 1
    33   18   19 1
    34   19   20 am
    35   19   48 1
    36   20   21 2
    37   20   22 1
    38   22   27 1
    39   22   23 1
    40   22   49 1
    41   23   24 1
    42   23   50 1
    43   23   51 1
    44   24   25 1
    45   24   52 1
    46   24   53 1
    47   25   26 1
    48   25   28 1
    49   26   27 1
    50   26   54 1
    51   26   55 1
    52   27   56 1
    53   27   57 1
    54   28   33 ar
    55   28   29 ar
    56   29   30 ar
    57   29   58 1
    58   30   31 ar
    59   30   59 1
    60   31   32 ar
    61   31   34 1
    62   32   33 ar
@<TRIPOS>MOLECULE
ZINC04127928
   67    72     0     0     0
SMALL
USER_CHARGES
N-(4-chlorophenyl)-cyclopropyl-N'-(2,3-dimethylcyclohexyl)-oxo-BLAHdicarboxamide
@<TRIPOS>ATOM
      1 C1         -4.1139    5.1882   -9.2883 C.3       1 <0>        -0.1498
      2 C2         -3.6237    5.3466   -7.8476 C.3       1 <0>        -0.0836
      3 H1         -4.3407    5.9428   -7.2833 H         1 <0>         0.0720
      4 C3         -2.2638    6.0478   -7.8458 C.3       1 <0>        -0.1191
      5 C4         -1.7736    6.2061   -6.4051 C.3       1 <0>        -0.1171
      6 C5         -1.6368    4.8263   -5.7584 C.3       1 <0>        -0.1302
      7 C6         -2.9967    4.1251   -5.7602 C.3       1 <0>         0.1523
      8 H2         -3.7137    4.7214   -5.1959 H         1 <0>         0.0891
      9 C7         -3.4869    3.9667   -7.2009 C.3       1 <0>        -0.0926
     10 H3         -4.4557    3.4672   -7.2022 H         1 <0>         0.0767
     11 C8         -2.4804    3.1298   -7.9930 C.3       1 <0>        -0.1563
     12 N1         -2.8657    2.8039   -5.1410 N.am      1 <0>        -0.7163
     13 C9         -2.9466    2.6764   -3.8017 C.2       1 <0>         0.5169
     14 O1         -3.1278    3.6554   -3.1092 O.2       1 <0>        -0.5144
     15 C10        -2.8118    1.3173   -3.1647 C.3       1 <0>         0.1618
     16 H4         -2.0637    0.7179   -3.6834 H         1 <0>         0.1146
     17 C11        -4.1279    0.6097   -3.1301 C.3       1 <0>         0.1020
     18 C12        -5.2556    1.4981   -2.6375 C.2       1 <0>        -0.1480
     19 C13        -6.3462    0.7463   -2.6710 C.2       1 <0>        -0.1901
     20 C14        -5.8629   -0.6344   -3.1317 C.3       1 <0>         0.1056
     21 H5         -6.6238   -1.2952   -3.5469 H         1 <0>         0.1583
     22 O2         -4.7479   -0.2628   -4.0452 O.3       1 <0>        -0.3107
     23 C15        -5.0882   -1.1564   -1.8600 C.3       1 <0>        -0.1093
     24 H6         -4.9467   -2.2363   -1.9040 H         1 <0>         0.1288
     25 C16        -3.7728   -0.4321   -1.9946 C.3       1 <0>        -0.1651
     26 H7         -3.0247   -1.1266   -2.3769 H         1 <0>         0.1277
     27 C17        -3.1459    0.4620   -1.0045 C.2       1 <0>         0.5524
     28 O3         -3.2029    0.3558    0.2023 O.2       1 <0>        -0.4510
     29 N2         -2.4847    1.4387   -1.7093 N.am      1 <0>        -0.5873
     30 C18        -1.5994    2.4489   -1.1244 C.3       1 <0>         0.0953
     31 C19        -0.3659    1.9537   -0.3667 C.3       1 <0>        -0.1967
     32 C20        -1.5484    2.5465    0.4023 C.3       1 <0>        -0.1834
     33 C21        -5.7985   -0.7573   -0.5922 C.2       1 <0>         0.5116
     34 O4         -5.2928    0.0510    0.1575 O.2       1 <0>        -0.4610
     35 N3         -6.9955   -1.2986   -0.2914 N.am      1 <0>        -0.6749
     36 C22        -7.6040   -1.0132    0.9364 C.ar      1 <0>         0.1555
     37 C23        -6.8252   -0.8102    2.0681 C.ar      1 <0>        -0.1073
     38 C24        -7.4279   -0.5245    3.2775 C.ar      1 <0>        -0.0884
     39 C25        -8.8070   -0.4503    3.3642 C.ar      1 <0>        -0.0511
     40 C26        -9.5856   -0.6568    2.2389 C.ar      1 <0>        -0.0906
     41 C27        -8.9877   -0.9381    1.0262 C.ar      1 <0>        -0.1359
     42 Cl1        -9.5618   -0.0980    4.8873 Cl        1 <0>        -0.0699
     43 H8         -3.3969    4.5919   -9.8526 H         1 <0>         0.0591
     44 H9         -5.0827    4.6887   -9.2896 H         1 <0>         0.0548
     45 H10        -4.2114    6.1712   -9.7490 H         1 <0>         0.0562
     46 H11        -2.3613    7.0308   -8.3065 H         1 <0>         0.0642
     47 H12        -1.5468    5.4515   -8.4101 H         1 <0>         0.0671
     48 H13        -2.4907    6.8024   -5.8408 H         1 <0>         0.0640
     49 H14        -0.8048    6.7057   -6.4038 H         1 <0>         0.0660
     50 H15        -1.2876    4.9391   -4.7320 H         1 <0>         0.0664
     51 H16        -0.9198    4.2300   -6.3227 H         1 <0>         0.0683
     52 H17        -2.3830    2.1468   -7.5322 H         1 <0>         0.0509
     53 H18        -2.8297    3.0169   -9.0193 H         1 <0>         0.0640
     54 H19        -1.5116    3.6293   -7.9917 H         1 <0>         0.0659
     55 H20        -2.7207    2.0209   -5.6948 H         1 <0>         0.4019
     56 H21        -5.1840    2.5293   -2.3248 H         1 <0>         0.1558
     57 H22        -7.3560    1.0417   -2.4272 H         1 <0>         0.1566
     58 H23        -1.5036    3.3749   -1.6914 H         1 <0>         0.1373
     59 H24        -0.2133    0.8763   -0.3029 H         1 <0>         0.0923
     60 H25         0.5415    2.5537   -0.4353 H         1 <0>         0.1003
     61 H26        -2.1737    1.8591    0.9720 H         1 <0>         0.1265
     62 H27        -1.4190    3.5367    0.8392 H         1 <0>         0.0978
     63 H28        -7.4354   -1.8859   -0.9258 H         1 <0>         0.4097
     64 H29        -5.7491   -0.8725    2.0019 H         1 <0>         0.1459
     65 H30        -6.8225   -0.3628    4.1571 H         1 <0>         0.1364
     66 H31       -10.6617   -0.5983    2.3093 H         1 <0>         0.1372
     67 H32        -9.5958   -1.0999    0.1484 H         1 <0>         0.1346
@<TRIPOS>BOND
     1    1    2 1
     2    1   43 1
     3    1   44 1
     4    1   45 1
     5    2    3 1
     6    2    9 1
     7    2    4 1
     8    4    5 1
     9    4   46 1
    10    4   47 1
    11    5    6 1
    12    5   48 1
    13    5   49 1
    14    6    7 1
    15    6   50 1
    16    6   51 1
    17    7    8 1
    18    7    9 1
    19    7   12 1
    20    9   10 1
    21    9   11 1
    22   11   52 1
    23   11   53 1
    24   11   54 1
    25   12   13 am
    26   12   55 1
    27   13   14 2
    28   13   15 1
    29   15   16 1
    30   15   29 1
    31   15   17 1
    32   17   22 1
    33   17   25 1
    34   17   18 1
    35   18   19 2
    36   18   56 1
    37   19   20 1
    38   19   57 1
    39   20   21 1
    40   20   22 1
    41   20   23 1
    42   23   24 1
    43   23   25 1
    44   23   33 1
    45   25   26 1
    46   25   27 1
    47   27   28 2
    48   27   29 am
    49   29   30 1
    50   30   32 1
    51   30   31 1
    52   30   58 1
    53   31   32 1
    54   31   59 1
    55   31   60 1
    56   32   61 1
    57   32   62 1
    58   33   34 2
    59   33   35 am
    60   35   36 1
    61   35   63 1
    62   36   41 ar
    63   36   37 ar
    64   37   38 ar
    65   37   64 1
    66   38   39 ar
    67   38   65 1
    68   39   40 ar
    69   39   42 1
    70   40   41 ar
    71   40   66 1
    72   41   67 1
@<TRIPOS>MOLECULE
ZINC13352918
   67    70     0     0     0
SMALL
USER_CHARGES
1-[4-(benzenesulfonamido)benzoyl]-N-(cyclohexylmethyl)piperidine-4-carboxamide
@<TRIPOS>ATOM
      1 C1          4.2311   10.9441    2.0516 C.ar      1 <0>        -0.0582
      2 C2          3.8611    9.6396    2.3204 C.ar      1 <0>        -0.1384
      3 C3          4.6102    8.5914    1.8194 C.ar      1 <0>        -0.0160
      4 C4          5.7297    8.8478    1.0500 C.ar      1 <0>        -0.6773
      5 C5          6.1030   10.1523    0.7860 C.ar      1 <0>        -0.0184
      6 C6          5.3506   11.2004    1.2822 C.ar      1 <0>        -0.1395
      7 S1          6.6849    7.5117    0.4119 S.o2      1 <0>         2.6896
      8 O1          6.3476    6.3667    1.1828 O.2       1 <0>        -0.9452
      9 O2          8.0194    7.9858    0.2957 O.2       1 <0>        -0.9461
     10 N1          6.1506    7.2196   -1.1281 N.pl3     1 <0>        -1.0560
     11 C7          4.8310    6.8393   -1.3458 C.ar      1 <0>         0.1686
     12 C8          4.0893    7.4500   -2.3533 C.ar      1 <0>        -0.1331
     13 C9          2.7831    7.0759   -2.5712 C.ar      1 <0>        -0.0435
     14 C10         2.2009    6.0818   -1.7792 C.ar      1 <0>        -0.1404
     15 C11         2.9465    5.4746   -0.7646 C.ar      1 <0>        -0.0686
     16 C12         4.2541    5.8490   -0.5554 C.ar      1 <0>        -0.1605
     17 C13         0.8006    5.6787   -2.0098 C.2       1 <0>         0.5643
     18 O3         -0.0281    6.5116   -2.3231 O.2       1 <0>        -0.5325
     19 N2          0.4399    4.3873   -1.8733 N.am      1 <0>        -0.6077
     20 C14         1.4469    3.3542   -1.5950 C.3       1 <0>         0.0904
     21 C15         1.3172    2.2443   -2.6429 C.3       1 <0>        -0.1153
     22 C16        -0.1239    1.7293   -2.6589 C.3       1 <0>        -0.1077
     23 C17        -1.0704    2.8689   -3.0427 C.3       1 <0>        -0.1253
     24 C18        -0.9678    3.9860   -1.9994 C.3       1 <0>         0.1133
     25 C19        -0.2472    0.6139   -3.6647 C.2       1 <0>         0.5168
     26 O4          0.7217    0.2652   -4.3055 O.2       1 <0>        -0.5355
     27 N3         -1.4343    0.0038   -3.8522 N.am      1 <0>        -0.7296
     28 C20        -1.5542   -1.0806   -4.8300 C.3       1 <0>         0.1221
     29 C21        -2.9948   -1.5956   -4.8463 C.3       1 <0>        -0.0986
     30 C22        -3.3243   -2.2315   -3.4943 C.3       1 <0>        -0.1147
     31 C23        -4.7649   -2.7466   -3.5105 C.3       1 <0>        -0.1203
     32 C24        -4.9204   -3.7917   -4.6171 C.3       1 <0>        -0.1220
     33 C25        -4.5909   -3.1558   -5.9691 C.3       1 <0>        -0.1192
     34 C26        -3.1503   -2.6407   -5.9529 C.3       1 <0>        -0.1125
     35 H1          3.6454   11.7630    2.4425 H         1 <0>         0.1332
     36 H2          2.9864    9.4393    2.9215 H         1 <0>         0.1350
     37 H3          4.3211    7.5722    2.0294 H         1 <0>         0.1417
     38 H4          6.9801   10.3526    0.1885 H         1 <0>         0.1395
     39 H5          5.6395   12.2196    1.0719 H         1 <0>         0.1351
     40 H6          6.7583    7.3137   -1.8783 H         1 <0>         0.4306
     41 H7          4.5396    8.2179   -2.9648 H         1 <0>         0.1375
     42 H8          2.2084    7.5495   -3.3534 H         1 <0>         0.1383
     43 H9          2.4982    4.7092   -0.1484 H         1 <0>         0.1420
     44 H10         4.8321    5.3769    0.2252 H         1 <0>         0.1637
     45 H11         1.2799    2.9396   -0.6009 H         1 <0>         0.0766
     46 H12         2.4437    3.7920   -1.6478 H         1 <0>         0.1048
     47 H13         1.9930    1.4266   -2.3923 H         1 <0>         0.0872
     48 H14         1.5730    2.6402   -3.6257 H         1 <0>         0.0770
     49 H15        -0.3873    1.3565   -1.6691 H         1 <0>         0.1011
     50 H16        -0.7921    3.2589   -4.0218 H         1 <0>         0.0754
     51 H17        -2.0940    2.4959   -3.0768 H         1 <0>         0.0807
     52 H18        -1.3317    3.6228   -1.0383 H         1 <0>         0.0738
     53 H19        -1.5642    4.8405   -2.3191 H         1 <0>         0.0996
     54 H20        -2.2092    0.2826   -3.3398 H         1 <0>         0.3998
     55 H21        -1.2903   -0.7081   -5.8198 H         1 <0>         0.0678
     56 H22        -0.8809   -1.8929   -4.5562 H         1 <0>         0.0683
     57 H23        -3.6755   -0.7650   -5.0327 H         1 <0>         0.0770
     58 H24        -2.6436   -3.0621   -3.3078 H         1 <0>         0.0650
     59 H25        -3.2135   -1.4870   -2.7059 H         1 <0>         0.0603
     60 H26        -5.4457   -1.9160   -3.6970 H         1 <0>         0.0618
     61 H27        -4.9997   -3.1996   -2.5473 H         1 <0>         0.0626
     62 H28        -5.9467   -4.1586   -4.6287 H         1 <0>         0.0618
     63 H29        -4.2397   -4.6223   -4.4307 H         1 <0>         0.0620
     64 H30        -5.2716   -2.3252   -6.1555 H         1 <0>         0.0621
     65 H31        -4.7017   -3.9003   -6.7575 H         1 <0>         0.0640
     66 H32        -2.9155   -2.1877   -6.9161 H         1 <0>         0.0655
     67 H33        -2.4695   -3.4713   -5.7664 H         1 <0>         0.0661
@<TRIPOS>BOND
     1    1    6 ar
     2    1    2 ar
     3    1   35 1
     4    2    3 ar
     5    2   36 1
     6    3    4 ar
     7    3   37 1
     8    4    5 ar
     9    4    7 1
    10    5    6 ar
    11    5   38 1
    12    6   39 1
    13    7    8 2
    14    7    9 2
    15    7   10 1
    16   10   11 1
    17   10   40 1
    18   11   16 ar
    19   11   12 ar
    20   12   13 ar
    21   12   41 1
    22   13   14 ar
    23   13   42 1
    24   14   15 ar
    25   14   17 1
    26   15   16 ar
    27   15   43 1
    28   16   44 1
    29   17   18 2
    30   17   19 am
    31   19   24 1
    32   19   20 1
    33   20   21 1
    34   20   45 1
    35   20   46 1
    36   21   22 1
    37   21   47 1
    38   21   48 1
    39   22   23 1
    40   22   25 1
    41   22   49 1
    42   23   24 1
    43   23   50 1
    44   23   51 1
    45   24   52 1
    46   24   53 1
    47   25   26 2
    48   25   27 am
    49   27   28 1
    50   27   54 1
    51   28   29 1
    52   28   55 1
    53   28   56 1
    54   29   34 1
    55   29   30 1
    56   29   57 1
    57   30   31 1
    58   30   58 1
    59   30   59 1
    60   31   32 1
    61   31   60 1
    62   31   61 1
    63   32   33 1
    64   32   62 1
    65   32   63 1
    66   33   34 1
    67   33   64 1
    68   33   65 1
    69   34   66 1
    70   34   67 1
@<TRIPOS>MOLECULE
ZINC20371071
   59    63     0     0     0
SMALL
USER_CHARGES
(3S)-1-(4-acetamidophenyl)-N-[4-(6-methyl-1,3-benzothiazol-2-yl)phenyl]-5-oxo-pyrrolidine-3-carboxamide
@<TRIPOS>ATOM
      1 C1          5.3505   13.4010   -6.5868 C.3       1 <0>        -0.1177
      2 C2          5.1204   12.0621   -5.9345 C.ar      1 <0>        -0.0570
      3 C3          6.1905   11.3328   -5.4348 C.ar      1 <0>        -0.1117
      4 C4          6.0146   10.1221   -4.8416 C.ar      1 <0>        -0.0547
      5 C5          4.7226    9.5586   -4.7120 C.ar      1 <0>         0.0720
      6 C6          3.6528   10.3257   -5.2309 C.ar      1 <0>        -0.1347
      7 C7          3.8415   11.5479   -5.8284 C.ar      1 <0>        -0.0718
      8 S1          2.2467    9.2958   -4.8873 S.3       1 <0>        -0.0073
      9 C8          3.1346    7.9621   -4.0950 C.2       1 <0>         0.2055
     10 N1          4.3804    8.3801   -4.1558 N.2       1 <0>        -0.4985
     11 C9          2.6048    6.7068   -3.5230 C.ar      1 <0>        -0.0426
     12 C10         3.4745    5.7787   -2.9467 C.ar      1 <0>        -0.0431
     13 C11         2.9774    4.6095   -2.4140 C.ar      1 <0>        -0.1477
     14 C12         1.6112    4.3532   -2.4496 C.ar      1 <0>         0.1765
     15 C13         0.7431    5.2729   -3.0275 C.ar      1 <0>        -0.1232
     16 C14         1.2333    6.4464   -3.5572 C.ar      1 <0>        -0.0629
     17 N2          1.1104    3.1666   -1.9090 N.am      1 <0>        -0.6845
     18 C15        -0.1032    3.1525   -1.3230 C.2       1 <0>         0.5127
     19 O1         -0.7208    4.1869   -1.1824 O.2       1 <0>        -0.5059
     20 C16        -0.6928    1.8516   -0.8424 C.3       1 <0>        -0.1250
     21 H1         -0.8008    1.2534   -1.7592 H         1 <0>         0.1397
     22 C17         0.1971    1.2098    0.2472 C.3       1 <0>        -0.1447
     23 C18        -0.3868    1.7106    1.5499 C.2       1 <0>         0.5197
     24 O2          0.1759    1.6718    2.6237 O.2       1 <0>        -0.5026
     25 N3         -1.6227    2.2043    1.3396 N.am      1 <0>        -0.5493
     26 C19        -2.0097    2.0928   -0.0717 C.3       1 <0>         0.1075
     27 C20        -2.4337    2.7545    2.3404 C.ar      1 <0>         0.1511
     28 C21        -3.6934    3.2446    2.0220 C.ar      1 <0>        -0.1339
     29 C22        -4.4950    3.7816    3.0094 C.ar      1 <0>        -0.0941
     30 C23        -4.0370    3.8422    4.3190 C.ar      1 <0>         0.1231
     31 C24        -2.7750    3.3573    4.6364 C.ar      1 <0>        -0.1160
     32 C25        -1.9757    2.8151    3.6501 C.ar      1 <0>        -0.1381
     33 N4         -4.8481    4.3919    5.3199 N.am      1 <0>        -0.6867
     34 C26        -6.1833    4.2129    5.2792 C.2       1 <0>         0.5109
     35 O3         -6.6910    3.6482    4.3333 O.2       1 <0>        -0.5324
     36 C27        -7.0456    4.7143    6.4089 C.3       1 <0>        -0.1757
     37 H2          6.4253   13.6347   -6.5751 H         1 <0>         0.0725
     38 H3          4.8005   14.1772   -6.0346 H         1 <0>         0.0763
     39 H4          4.9936   13.3683   -7.6268 H         1 <0>         0.0763
     40 H5          7.1882   11.7375   -5.5190 H         1 <0>         0.1354
     41 H6          6.8715    9.5837   -4.4643 H         1 <0>         0.1343
     42 H7          2.9980   12.1024   -6.2123 H         1 <0>         0.1347
     43 H8          4.5357    5.9774   -2.9184 H         1 <0>         0.1416
     44 H9          3.6496    3.8911   -1.9684 H         1 <0>         0.1369
     45 H10        -0.3171    5.0691   -3.0573 H         1 <0>         0.1427
     46 H11         0.5581    7.1621   -4.0026 H         1 <0>         0.1321
     47 H12         1.7065    2.2436   -1.9615 H         1 <0>         0.4395
     48 H13         0.1433    0.1141    0.1661 H         1 <0>         0.1285
     49 H14         1.2383    1.5369    0.1099 H         1 <0>         0.1119
     50 H15        -2.4819    3.0181   -0.4333 H         1 <0>         0.1092
     51 H16        -2.6912    1.2451   -0.2358 H         1 <0>         0.0967
     52 H17        -4.0479    3.2015    1.0027 H         1 <0>         0.1290
     53 H18        -5.4763    4.1590    2.7625 H         1 <0>         0.1419
     54 H19        -2.4186    3.4047    5.6548 H         1 <0>         0.1301
     55 H20        -0.9941    2.4383    3.8968 H         1 <0>         0.1583
     56 H21        -4.3953    4.9697    6.1392 H         1 <0>         0.4350
     57 H22        -8.0992    4.4780    6.1987 H         1 <0>         0.0962
     58 H23        -6.9263    5.8035    6.5056 H         1 <0>         0.0918
     59 H24        -6.7407    4.2273    7.3469 H         1 <0>         0.0920
@<TRIPOS>BOND
     1    1    2 1
     2    1   37 1
     3    1   38 1
     4    1   39 1
     5    2    7 ar
     6    2    3 ar
     7    3    4 ar
     8    3   40 1
     9    4    5 ar
    10    4   41 1
    11    5   10 1
    12    5    6 ar
    13    6    7 ar
    14    6    8 1
    15    7   42 1
    16    8    9 1
    17    9   10 2
    18    9   11 1
    19   11   16 ar
    20   11   12 ar
    21   12   13 ar
    22   12   43 1
    23   13   14 ar
    24   13   44 1
    25   14   15 ar
    26   14   17 1
    27   15   16 ar
    28   15   45 1
    29   16   46 1
    30   17   18 am
    31   17   47 1
    32   18   19 2
    33   18   20 1
    34   20   21 1
    35   20   26 1
    36   20   22 1
    37   22   23 1
    38   22   48 1
    39   22   49 1
    40   23   24 2
    41   23   25 am
    42   25   26 1
    43   25   27 1
    44   26   50 1
    45   26   51 1
    46   27   32 ar
    47   27   28 ar
    48   28   29 ar
    49   28   52 1
    50   29   30 ar
    51   29   53 1
    52   30   31 ar
    53   30   33 1
    54   31   32 ar
    55   31   54 1
    56   32   55 1
    57   33   34 am
    58   33   56 1
    59   34   35 2
    60   34   36 1
    61   36   57 1
    62   36   58 1
    63   36   59 1
@<TRIPOS>MOLECULE
ZINC27550467
   51    54     0     0     0
SMALL
USER_CHARGES
(4R)-2-amino-1-(2-chloro-5-nitro-phenyl)-4-(5-methyl-2-methylsulfanyl-3-thienyl)-5-oxo-4,6,7,8-tetrahydroquinoline-3-carbonitrile
@<TRIPOS>ATOM
      1 C1          0.2238    4.0710    5.0198 C.3       1 <0>        -0.0720
      2 C2          0.9340    4.3130    3.7128 C.2       1 <0>        -0.1454
      3 C3          0.6173    3.8627    2.4757 C.2       1 <0>        -0.1271
      4 C4          1.4233    4.2106    1.4064 C.2       1 <0>        -0.0846
      5 C5          2.5063    5.0068    1.6332 C.2       1 <0>        -0.1551
      6 S1          2.4044    5.2741    3.3954 S.3       1 <0>         0.0361
      7 S2          3.6972    5.6143    0.4855 S.3       1 <0>        -0.0026
      8 C6          4.8293    6.5971    1.5067 C.3       1 <0>        -0.1653
      9 C7          1.1065    3.7235    0.0160 C.3       1 <0>         0.1166
     10 H1          1.8534    4.0916   -0.7028 H         1 <0>         0.0933
     11 C8         -0.2374    4.2490   -0.3949 C.2       1 <0>        -0.2388
     12 C9         -1.3381    3.4536   -0.3743 C.2       1 <0>         0.4838
     13 N1         -1.2328    2.1392    0.0196 N.pl3     1 <0>        -0.4930
     14 C10        -0.0184    1.5047    0.0103 C.2       1 <0>         0.2108
     15 C11         1.1291    2.2159    0.0032 C.2       1 <0>        -0.2323
     16 C12         2.3796    1.5736   -0.0122 C.2       1 <0>         0.3953
     17 O1          3.3935    2.2429   -0.0390 O.2       1 <0>        -0.4412
     18 C13         2.4857    0.0732    0.0040 C.3       1 <0>        -0.1698
     19 C14         1.2588   -0.5050    0.7172 C.3       1 <0>        -0.1112
     20 C15         0.0021   -0.0041    0.0020 C.3       1 <0>        -0.0977
     21 C16        -2.3760    1.4451    0.4337 C.ar      1 <0>         0.1196
     22 C17        -2.7501    1.4553    1.7711 C.ar      1 <0>        -0.0277
     23 C18        -3.8785    0.7700    2.1765 C.ar      1 <0>        -0.0303
     24 C19        -4.6364    0.0738    1.2525 C.ar      1 <0>        -0.0255
     25 C20        -4.2673    0.0606   -0.0798 C.ar      1 <0>        -0.0975
     26 C21        -3.1423    0.7490   -0.4935 C.ar      1 <0>         0.0027
     27 Cl1        -2.6832    0.7383   -2.1676 Cl        1 <0>        -0.0074
     28 N2         -4.2777    0.7811    3.6018 N.pl3     1 <0>         0.0229
     29 O2         -3.6111    1.3943    4.4162 O.2       1 <0>        -0.1417
     30 O3         -5.2728    0.1771    3.9603 O.3       1 <0>        -0.1400
     31 N3         -2.5591    3.9619   -0.7480 N.pl3     1 <0>        -0.8752
     32 C22        -0.3616    5.6120   -0.8163 C.1       1 <0>         0.2741
     33 N4         -0.4601    6.6932   -1.1505 N.1       1 <0>        -0.4464
     34 H2         -0.6524    3.4287    4.8475 H         1 <0>         0.0823
     35 H3         -0.1037    5.0323    5.4426 H         1 <0>         0.0754
     36 H4          0.9091    3.5755    5.7232 H         1 <0>         0.0761
     37 H5         -0.2501    3.2368    2.3264 H         1 <0>         0.1206
     38 H6          5.6192    7.0242    0.8713 H         1 <0>         0.1151
     39 H7          5.2840    5.9530    2.2738 H         1 <0>         0.0868
     40 H8          4.2713    7.4101    1.9942 H         1 <0>         0.0845
     41 H9          2.5261   -0.3027   -1.0290 H         1 <0>         0.1023
     42 H10         3.4001   -0.2240    0.5383 H         1 <0>         0.1005
     43 H11         1.2984   -1.6037    0.6823 H         1 <0>         0.0888
     44 H12         1.2529   -0.1714    1.7654 H         1 <0>         0.0771
     45 H13        -0.8899   -0.3858    0.5204 H         1 <0>         0.0823
     46 H14         0.0048   -0.3651   -1.0371 H         1 <0>         0.1042
     47 H15        -2.1592    1.9989    2.4934 H         1 <0>         0.1698
     48 H16        -5.5183   -0.4612    1.5726 H         1 <0>         0.1734
     49 H17        -4.8611   -0.4843   -0.7988 H         1 <0>         0.1710
     50 H18        -3.4511    3.3184   -0.7316 H         1 <0>         0.4156
     51 H19        -2.6444    5.0122   -1.0635 H         1 <0>         0.4465
@<TRIPOS>BOND
     1    1    2 1
     2    1   34 1
     3    1   35 1
     4    1   36 1
     5    2    6 1
     6    2    3 2
     7    3    4 1
     8    3   37 1
     9    4    5 2
    10    4    9 1
    11    5    6 1
    12    5    7 1
    13    7    8 1
    14    8   38 1
    15    8   39 1
    16    8   40 1
    17    9   10 1
    18    9   15 1
    19    9   11 1
    20   11   12 2
    21   11   32 1
    22   12   13 1
    23   12   31 1
    24   13   14 1
    25   13   21 1
    26   14   20 1
    27   14   15 2
    28   15   16 1
    29   16   17 2
    30   16   18 1
    31   18   19 1
    32   18   41 1
    33   18   42 1
    34   19   20 1
    35   19   43 1
    36   19   44 1
    37   20   45 1
    38   20   46 1
    39   21   26 ar
    40   21   22 ar
    41   22   23 ar
    42   22   47 1
    43   23   24 ar
    44   23   28 1
    45   24   25 ar
    46   24   48 1
    47   25   26 ar
    48   25   49 1
    49   26   27 1
    50   28   29 2
    51   28   30 1
    52   31   50 1
    53   31   51 1
    54   32   33 3
@<TRIPOS>MOLECULE
ZINC35752828
   67    70     0     0     0
SMALL
USER_CHARGES

@<TRIPOS>ATOM
      1 C1          0.8034    1.5036    1.9922 C.3       1 <0>        -0.1234
      2 C2          0.8084   -0.0034    1.9974 C.ar      1 <0>        -0.0526
      3 C3          1.4383   -0.6865    3.0225 C.ar      1 <0>        -0.1282
      4 C4          1.4466   -2.0660    3.0333 C.ar      1 <0>        -0.0499
      5 C5          0.8176   -2.7726    2.0069 C.ar      1 <0>        -0.1479
      6 C6          0.1839   -2.0773    0.9757 C.ar      1 <0>        -0.0803
      7 C7          0.1781   -0.6977    0.9799 C.ar      1 <0>        -0.1286
      8 C8          0.8229   -4.2507    2.0117 C.2       1 <0>         0.5621
      9 O1          1.3759   -4.8536    2.9109 O.2       1 <0>        -0.5108
     10 N1          0.2147   -4.9301    1.0192 N.am      1 <0>        -0.6722
     11 C9          0.2912   -6.3258    0.9782 C.ar      1 <0>         0.1616
     12 C10         0.3695   -6.9829   -0.2429 C.ar      1 <0>        -0.1412
     13 C11         0.4454   -8.3614   -0.2800 C.ar      1 <0>        -0.0811
     14 C12         0.4430   -9.0874    0.8970 C.ar      1 <0>        -0.1217
     15 C13         0.3647   -8.4363    2.1144 C.ar      1 <0>        -0.0652
     16 C14         0.2948   -7.0577    2.1587 C.ar      1 <0>        -0.1166
     17 C15         0.5254  -10.5915    0.8527 C.3       1 <0>         0.1346
     18 H1          1.0183  -10.9257   -0.0602 H         1 <0>         0.1146
     19 C16        -0.8793  -11.2259    0.9862 C.3       1 <0>         0.0796
     20 H2         -1.5648  -10.5476    1.4942 H         1 <0>         0.1216
     21 N2         -0.6067  -12.4163    1.8158 N.am      1 <0>        -0.6034
     22 C17         0.6178  -12.2684    2.3556 C.2       1 <0>         0.6466
     23 O2          1.1422  -13.0994    3.0703 O.2       1 <0>        -0.4998
     24 O3          1.1993  -11.1044    2.0186 O.3       1 <0>        -0.3120
     25 C18        -1.5072  -13.5544    2.0159 C.3       1 <0>         0.1891
     26 C19        -2.3037  -13.3489    3.2785 C.ar      1 <0>        -0.1147
     27 C20        -1.7724  -13.7214    4.4994 C.ar      1 <0>        -0.0985
     28 C21        -2.5029  -13.5329    5.6574 C.ar      1 <0>        -0.1169
     29 C22        -3.7648  -12.9714    5.5951 C.ar      1 <0>        -0.1126
     30 C23        -4.2956  -12.5982    4.3747 C.ar      1 <0>        -0.0907
     31 C24        -3.5631  -12.7828    3.2167 C.ar      1 <0>        -0.1036
     32 C25        -5.6713  -11.9867    4.3067 C.3       1 <0>        -0.1146
     33 C26        -1.4205  -11.6200   -0.3639 C.2       1 <0>         0.5148
     34 O4         -1.4178  -12.7848   -0.7019 O.2       1 <0>        -0.5128
     35 N3         -1.9075  -10.6781   -1.1958 N.am      1 <0>        -0.7182
     36 C27        -2.4336  -11.0613   -2.5083 C.3       1 <0>         0.1362
     37 C28        -3.4456  -10.0141   -2.9776 C.3       1 <0>        -0.1623
     38 C29        -1.2836  -11.1457   -3.5139 C.3       1 <0>        -0.1660
     39 H3         -0.0712    1.8659    2.5326 H         1 <0>         0.0776
     40 H4          1.7079    1.8716    2.4764 H         1 <0>         0.0719
     41 H5          0.7697    1.8633    0.9638 H         1 <0>         0.0713
     42 H6          1.9249   -0.1385    3.8158 H         1 <0>         0.1327
     43 H7          1.9390   -2.5980    3.8339 H         1 <0>         0.1385
     44 H8         -0.3043   -2.6180    0.1784 H         1 <0>         0.1256
     45 H9         -0.3155   -0.1585    0.1850 H         1 <0>         0.1313
     46 H10        -0.2761   -4.4509    0.3334 H         1 <0>         0.4120
     47 H11         0.3707   -6.4166   -1.1625 H         1 <0>         0.1334
     48 H12         0.5063   -8.8730   -1.2292 H         1 <0>         0.1321
     49 H13         0.3627   -9.0062    3.0318 H         1 <0>         0.1325
     50 H14         0.2381   -6.5495    3.1099 H         1 <0>         0.1445
     51 H15        -2.1862  -13.6341    1.1669 H         1 <0>         0.1052
     52 H16        -0.9221  -14.4702    2.1004 H         1 <0>         0.0974
     53 H17        -0.7867  -14.1600    4.5481 H         1 <0>         0.1284
     54 H18        -2.0881  -13.8245    6.6110 H         1 <0>         0.1240
     55 H19        -4.3359  -12.8248    6.4999 H         1 <0>         0.1221
     56 H20        -3.9764  -12.4878    2.2636 H         1 <0>         0.1178
     57 H21        -5.5922  -10.9034    4.3978 H         1 <0>         0.0695
     58 H22        -6.1339  -12.2382    3.3523 H         1 <0>         0.0656
     59 H23        -6.2827  -12.3761    5.1207 H         1 <0>         0.0671
     60 H24        -1.9097   -9.7466   -0.9255 H         1 <0>         0.4025
     61 H25        -2.9234  -12.0322   -2.4341 H         1 <0>         0.0914
     62 H26        -2.9558   -9.0431   -3.0518 H         1 <0>         0.0627
     63 H27        -3.8371  -10.2991   -3.9541 H         1 <0>         0.0760
     64 H28        -4.2649   -9.9539   -2.2612 H         1 <0>         0.0629
     65 H29        -0.7938  -10.1748   -3.5881 H         1 <0>         0.0585
     66 H30        -0.5627  -11.8917   -3.1796 H         1 <0>         0.0613
     67 H31        -1.6751  -11.4307   -4.4904 H         1 <0>         0.0692
@<TRIPOS>BOND
     1    1    2 1
     2    1   39 1
     3    1   40 1
     4    1   41 1
     5    2    7 ar
     6    2    3 ar
     7    3    4 ar
     8    3   42 1
     9    4    5 ar
    10    4   43 1
    11    5    6 ar
    12    5    8 1
    13    6    7 ar
    14    6   44 1
    15    7   45 1
    16    8    9 2
    17    8   10 am
    18   10   11 1
    19   10   46 1
    20   11   16 ar
    21   11   12 ar
    22   12   13 ar
    23   12   47 1
    24   13   14 ar
    25   13   48 1
    26   14   15 ar
    27   14   17 1
    28   15   16 ar
    29   15   49 1
    30   16   50 1
    31   17   18 1
    32   17   24 1
    33   17   19 1
    34   19   20 1
    35   19   21 1
    36   19   33 1
    37   21   22 am
    38   21   25 1
    39   22   23 2
    40   22   24 1
    41   25   26 1
    42   25   51 1
    43   25   52 1
    44   26   31 ar
    45   26   27 ar
    46   27   28 ar
    47   27   53 1
    48   28   29 ar
    49   28   54 1
    50   29   30 ar
    51   29   55 1
    52   30   31 ar
    53   30   32 1
    54   31   56 1
    55   32   57 1
    56   32   58 1
    57   32   59 1
    58   33   34 2
    59   33   35 am
    60   35   36 1
    61   35   60 1
    62   36   37 1
    63   36   38 1
    64   36   61 1
    65   37   62 1
    66   37   63 1
    67   37   64 1
    68   38   65 1
    69   38   66 1
    70   38   67 1
@<TRIPOS>MOLECULE
ZINC14111086
   59    62     0     0     0
SMALL
USER_CHARGES

@<TRIPOS>ATOM
      1 C1          2.8100    0.9555   -0.8820 C.ar      1 <0>        -0.1029
      2 C2          2.2655    2.0727   -0.2818 C.ar      1 <0>        -0.1002
      3 C3          1.0814    1.9648    0.4495 C.ar      1 <0>        -0.1185
      4 C4          0.4524    0.7255    0.5706 C.ar      1 <0>        -0.0590
      5 C5          1.0074   -0.3903   -0.0360 C.ar      1 <0>         0.1411
      6 C6          2.1868   -0.2723   -0.7619 C.ar      1 <0>        -0.1144
      7 N1          0.3802   -1.6358    0.0825 N.am      1 <0>        -0.6739
      8 C7         -0.9637   -1.7097    0.1530 C.2       1 <0>         0.5209
      9 O1         -1.6339   -0.7075    0.0205 O.2       1 <0>        -0.5070
     10 C8         -1.6336   -3.0374    0.3965 C.3       1 <0>        -0.1560
     11 C9         -3.1509   -2.8443    0.4315 C.3       1 <0>         0.1125
     12 N2         -3.8022   -4.1351    0.6682 N.am      1 <0>        -0.5819
     13 C10        -4.1711   -4.9624   -0.3251 C.2       1 <0>         0.5271
     14 O2         -3.8943   -4.8372   -1.4987 O.2       1 <0>        -0.4697
     15 C11        -5.0006   -6.0889    0.2886 C.3       1 <0>        -0.1063
     16 H1         -4.7268   -7.0483   -0.1504 H         1 <0>         0.1236
     17 C12        -6.4637   -5.7866    0.0289 C.3       1 <0>        -0.1077
     18 C13        -7.3838   -6.4240    1.0607 C.3       1 <0>        -0.1171
     19 C14        -7.0008   -5.8928    2.4465 C.3       1 <0>        -0.1238
     20 C15        -5.6015   -6.3975    2.7792 C.3       1 <0>        -0.1040
     21 C16        -4.5644   -6.0264    1.7458 C.3       1 <0>        -0.1147
     22 H2         -3.6937   -6.6712    1.8643 H         1 <0>         0.1184
     23 C17        -4.0798   -4.6018    1.9003 C.2       1 <0>         0.5292
     24 O3         -3.9646   -3.9922    2.9418 O.2       1 <0>        -0.4648
     25 C18         0.4961    3.1597    1.0938 C.2       1 <0>         0.5605
     26 O4         -0.5351    3.0634    1.7301 O.2       1 <0>        -0.5030
     27 N3          1.1059    4.3558    0.9757 N.am      1 <0>        -0.6698
     28 C19         0.6131    5.4637    1.6724 C.ar      1 <0>         0.1486
     29 C20         0.7062    6.7333    1.1164 C.ar      1 <0>        -0.1133
     30 C21         0.2187    7.8252    1.8070 C.ar      1 <0>        -0.0978
     31 C22        -0.3615    7.6558    3.0510 C.ar      1 <0>        -0.0880
     32 C23        -0.4557    6.3935    3.6072 C.ar      1 <0>        -0.1619
     33 C24         0.0244    5.2963    2.9190 C.ar      1 <0>        -0.0732
     34 C25        -1.0882    6.2138    4.9632 C.3       1 <0>         0.5091
     35 F1         -1.4992    7.4574    5.4546 F         1 <0>        -0.1760
     36 F2         -2.1961    5.3668    4.8524 F         1 <0>        -0.1721
     37 F3         -0.1563    5.6502    5.8414 F         1 <0>        -0.1760
     38 H3          3.7238    1.0418   -1.4512 H         1 <0>         0.1380
     39 H4          2.7557    3.0303   -0.3777 H         1 <0>         0.1287
     40 H5         -0.4638    0.6357    1.1354 H         1 <0>         0.1513
     41 H6          2.6176   -1.1430   -1.2338 H         1 <0>         0.1344
     42 H7          0.9128   -2.4459    0.1139 H         1 <0>         0.4152
     43 H8         -1.3736   -3.7281   -0.4057 H         1 <0>         0.1065
     44 H9         -1.2971   -3.4448    1.3499 H         1 <0>         0.1052
     45 H10        -3.4109   -2.1537    1.2337 H         1 <0>         0.1062
     46 H11        -3.4874   -2.4369   -0.5219 H         1 <0>         0.1029
     47 H12        -6.6089   -4.7064    0.0468 H         1 <0>         0.0639
     48 H13        -6.7306   -6.1598   -0.9597 H         1 <0>         0.0817
     49 H14        -8.4186   -6.1613    0.8408 H         1 <0>         0.0739
     50 H15        -7.2650   -7.5073    1.0380 H         1 <0>         0.0721
     51 H16        -7.0061   -4.8028    2.4370 H         1 <0>         0.0637
     52 H17        -7.7099   -6.2582    3.1894 H         1 <0>         0.0762
     53 H18        -5.3002   -5.9871    3.7430 H         1 <0>         0.0823
     54 H19        -5.6295   -7.4844    2.8564 H         1 <0>         0.0789
     55 H20         1.8866    4.4481    0.4075 H         1 <0>         0.4142
     56 H21         1.1598    6.8663    0.1454 H         1 <0>         0.1374
     57 H22         0.2908    8.8125    1.3753 H         1 <0>         0.1418
     58 H23        -0.7414    8.5116    3.5894 H         1 <0>         0.1416
     59 H24        -0.0538    4.3100    3.3518 H         1 <0>         0.1461
@<TRIPOS>BOND
     1    1    6 ar
     2    1    2 ar
     3    1   38 1
     4    2    3 ar
     5    2   39 1
     6    3    4 ar
     7    3   25 1
     8    4    5 ar
     9    4   40 1
    10    5    6 ar
    11    5    7 1
    12    6   41 1
    13    7    8 am
    14    7   42 1
    15    8    9 2
    16    8   10 1
    17   10   11 1
    18   10   43 1
    19   10   44 1
    20   11   12 1
    21   11   45 1
    22   11   46 1
    23   12   23 am
    24   12   13 am
    25   13   14 2
    26   13   15 1
    27   15   16 1
    28   15   21 1
    29   15   17 1
    30   17   18 1
    31   17   47 1
    32   17   48 1
    33   18   19 1
    34   18   49 1
    35   18   50 1
    36   19   20 1
    37   19   51 1
    38   19   52 1
    39   20   21 1
    40   20   53 1
    41   20   54 1
    42   21   22 1
    43   21   23 1
    44   23   24 2
    45   25   26 2
    46   25   27 am
    47   27   28 1
    48   27   55 1
    49   28   33 ar
    50   28   29 ar
    51   29   30 ar
    52   29   56 1
    53   30   31 ar
    54   30   57 1
    55   31   32 ar
    56   31   58 1
    57   32   33 ar
    58   32   34 1
    59   33   59 1
    60   34   35 1
    61   34   36 1
    62   34   37 1
@<TRIPOS>MOLECULE
ZINC14975935
   60    63     0     0     0
SMALL
USER_CHARGES
2-methoxy-4-[[[(4S)-1-(4-methoxyphenyl)-6,6-dimethyl-5,7-dihydro-4H-indazol-4-yl]amino]methyl]phenol
@<TRIPOS>ATOM
      1 C1          5.3743    3.8500   -3.0088 C.3       1 <0>        -0.1486
      2 C2          5.1730    2.8310   -1.8854 C.3       1 <0>        -0.0431
      3 C3          3.6723    2.6226   -1.6473 C.3       1 <0>        -0.0674
      4 C4          3.4968    1.4452   -0.7213 C.2       1 <0>         0.1521
      5 C5          4.4647    0.5290   -0.4620 C.2       1 <0>        -0.3118
      6 C6          3.9462   -0.4029    0.4345 C.2       1 <0>         0.0564
      7 N1          2.7112   -0.0595    0.7110 N.2       1 <0>        -0.2647
      8 N2          2.4046    1.1019   -0.0140 N.pl3     1 <0>        -0.2873
      9 C7          1.1801    1.7864    0.0004 C.ar      1 <0>         0.0767
     10 C8          0.5020    1.9713    1.1977 C.ar      1 <0>        -0.0514
     11 C9         -0.7054    2.6409    1.2106 C.ar      1 <0>        -0.1927
     12 C10        -1.2359    3.1380    0.0290 C.ar      1 <0>         0.1512
     13 C11        -0.5586    2.9534   -1.1678 C.ar      1 <0>        -0.1332
     14 C12         0.6463    2.2795   -1.1826 C.ar      1 <0>        -0.0748
     15 O1         -2.4220    3.8020    0.0431 O.3       1 <0>        -0.3079
     16 C13        -3.0645    3.9556    1.3102 C.3       1 <0>         0.0213
     17 C14         5.8452    0.5625   -1.0690 C.3       1 <0>         0.1258
     18 H1          6.5607    0.9330   -0.3349 H         1 <0>         0.1460
     19 C15         5.8174    1.5001   -2.2823 C.3       1 <0>        -0.1355
     20 C16         6.8335   -1.5404   -0.3879 C.3       1 <0>         0.0482
     21 C17         7.2150   -2.9185   -0.8636 C.ar      1 <0>        -0.1353
     22 C18         8.4721   -3.1417   -1.3939 C.ar      1 <0>        -0.1108
     23 C19         8.8268   -4.4041   -1.8317 C.ar      1 <0>        -0.1054
     24 C20         7.9217   -5.4492   -1.7391 C.ar      1 <0>         0.1152
     25 C21         6.6566   -5.2246   -1.2050 C.ar      1 <0>         0.1098
     26 C22         6.3091   -3.9580   -0.7636 C.ar      1 <0>        -0.1745
     27 O2          5.7648   -6.2472   -1.1121 O.3       1 <0>        -0.2985
     28 C23         4.4851   -5.9432   -0.5533 C.3       1 <0>         0.0212
     29 O3          8.2693   -6.6917   -2.1690 O.3       1 <0>        -0.4827
     30 C24         5.8254    3.3507   -0.6027 C.3       1 <0>        -0.1593
     31 H2          4.9161    4.7978   -2.7261 H         1 <0>         0.0701
     32 H3          6.4408    3.9982   -3.1781 H         1 <0>         0.0688
     33 H4          4.9093    3.4800   -3.9226 H         1 <0>         0.0642
     34 H5          3.1747    2.4210   -2.5959 H         1 <0>         0.1010
     35 H6          3.2455    3.5156   -1.1907 H         1 <0>         0.1005
     36 H7          4.4718   -1.2567    0.8361 H         1 <0>         0.1863
     37 H8          0.9167    1.5876    2.1181 H         1 <0>         0.1375
     38 H9         -1.2351    2.7809    2.1413 H         1 <0>         0.1445
     39 H10        -0.9742    3.3367   -2.0880 H         1 <0>         0.1485
     40 H11         1.1732    2.1355   -2.1142 H         1 <0>         0.1369
     41 H12        -2.4109    4.5092    1.9843 H         1 <0>         0.0614
     42 H13        -3.9988    4.5018    1.1800 H         1 <0>         0.1096
     43 H14        -3.2740    2.9729    1.7328 H         1 <0>         0.0615
     44 H15         5.2381    1.0406   -3.0832 H         1 <0>         0.0907
     45 H16         6.8360    1.6782   -2.6269 H         1 <0>         0.0999
     46 H17         7.7233   -1.0181   -0.0365 H         1 <0>         0.1424
     47 H18         6.1152   -1.6235    0.4277 H         1 <0>         0.1331
     48 H19         9.1784   -2.3280   -1.4666 H         1 <0>         0.1393
     49 H20         9.8095   -4.5758   -2.2455 H         1 <0>         0.1496
     50 H21         5.3291   -3.7819   -0.3452 H         1 <0>         0.1400
     51 H22         4.6116   -5.5716    0.4635 H         1 <0>         0.0601
     52 H23         3.9953   -5.1816   -1.1602 H         1 <0>         0.0575
     53 H24         3.8723   -6.8445   -0.5372 H         1 <0>         0.1110
     54 H25         8.6754   -7.2444   -1.4873 H         1 <0>         0.4016
     55 H26         5.6818    2.6250    0.1978 H         1 <0>         0.0610
     56 H27         6.8919    3.4989   -0.7718 H         1 <0>         0.0681
     57 H28         5.3671    4.2986   -0.3203 H         1 <0>         0.0688
     58 N3          6.2291   -0.7929   -1.5067 N.4       1 <0>        -0.5155
     59 H29         6.9090   -0.7215   -2.2728 H         1 <0>         0.4315
     60 H30         5.3941   -1.2918   -1.8355 H         1 <0>         0.4313
@<TRIPOS>BOND
     1    1    2 1
     2    1   31 1
     3    1   32 1
     4    1   33 1
     5    2   19 1
     6    2    3 1
     7    2   30 1
     8    3    4 1
     9    3   34 1
    10    3   35 1
    11    4    8 1
    12    4    5 2
    13    5    6 1
    14    5   17 1
    15    6    7 2
    16    6   36 1
    17    7    8 1
    18    8    9 1
    19    9   14 ar
    20    9   10 ar
    21   10   11 ar
    22   10   37 1
    23   11   12 ar
    24   11   38 1
    25   12   13 ar
    26   12   15 1
    27   13   14 ar
    28   13   39 1
    29   14   40 1
    30   15   16 1
    31   16   41 1
    32   16   42 1
    33   16   43 1
    34   17   18 1
    35   17   19 1
    36   17   58 1
    37   19   44 1
    38   19   45 1
    39   20   21 1
    40   20   46 1
    41   20   47 1
    42   20   58 1
    43   21   26 ar
    44   21   22 ar
    45   22   23 ar
    46   22   48 1
    47   23   24 ar
    48   23   49 1
    49   24   25 ar
    50   24   29 1
    51   25   26 ar
    52   25   27 1
    53   26   50 1
    54   27   28 1
    55   28   51 1
    56   28   52 1
    57   28   53 1
    58   29   54 1
    59   30   55 1
    60   30   56 1
    61   30   57 1
    62   58   59 1
    63   58   60 1
@<TRIPOS>MOLECULE
ZINC39595348
   66    69     0     0     0
SMALL
USER_CHARGES

@<TRIPOS>ATOM
      1 C1          0.1842    1.8897    0.4109 C.3       1 <0>        -0.1261
      2 C2          0.1822    0.3850    0.3275 C.ar      1 <0>        -0.0481
      3 C3         -0.3781   -0.2432   -0.7705 C.ar      1 <0>        -0.1269
      4 C4         -0.3832   -1.6203   -0.8531 C.ar      1 <0>        -0.0526
      5 C5          0.1786   -2.3800    0.1743 C.ar      1 <0>        -0.1513
      6 C6          0.7423   -1.7400    1.2792 C.ar      1 <0>        -0.0922
      7 C7          0.7459   -0.3620    1.3466 C.ar      1 <0>        -0.1282
      8 C8          0.1763   -3.8562    0.0927 C.2       1 <0>         0.5912
      9 O1          0.0844   -4.4050   -0.9880 O.2       1 <0>        -0.5274
     10 N1          0.2760   -4.5934    1.2166 N.am      1 <0>        -0.6207
     11 C9          0.2661   -4.1163    2.6196 C.3       1 <0>         0.1018
     12 C10        -0.5647   -5.1708    3.3846 C.3       1 <0>        -0.1149
     13 H1         -1.6041   -4.8519    3.4620 H         1 <0>         0.1136
     14 C11        -0.4581   -6.4473    2.5334 C.3       1 <0>        -0.0728
     15 C12         0.4138   -6.0652    1.3286 C.3       1 <0>         0.1085
     16 C13        -1.8411   -6.8830    2.0590 C.3       1 <0>        -0.1345
     17 C14        -1.7157   -8.1851    1.2629 C.3       1 <0>        -0.0113
     18 N2         -1.1176   -9.2233    2.1110 N.4       1 <0>        -0.5044
     19 C15         0.2479   -8.8378    2.4869 C.3       1 <0>        -0.0079
     20 C16         0.2056   -7.5632    3.3345 C.3       1 <0>        -0.1469
     21 C17         0.0157   -5.4020    4.7560 C.2       1 <0>         0.5218
     22 O2          1.1907   -5.1834    4.9620 O.2       1 <0>        -0.5182
     23 N3         -0.7711   -5.8515    5.7537 N.am      1 <0>        -0.7251
     24 C18        -0.2069   -6.0762    7.0869 C.3       1 <0>         0.1189
     25 C19        -1.3035   -6.5823    8.0261 C.3       1 <0>         0.0700
     26 H2         -1.7088   -7.5179    7.6407 H         1 <0>         0.0815
     27 C20        -0.7143   -6.8169    9.4185 C.3       1 <0>        -0.1794
     28 O3         -2.3469   -5.6093    8.1082 O.3       1 <0>        -0.3031
     29 C21        -3.6135   -6.0748    8.2726 C.ar      1 <0>         0.1148
     30 C22        -4.6875   -5.1987    8.2194 C.ar      1 <0>        -0.1200
     31 C23        -5.9741   -5.6732    8.3867 C.ar      1 <0>        -0.1103
     32 C24        -6.1918   -7.0225    8.6078 C.ar      1 <0>         0.0668
     33 C25        -5.1206   -7.8981    8.6617 C.ar      1 <0>        -0.1130
     34 C26        -3.8334   -7.4273    8.4881 C.ar      1 <0>        -0.1857
     35 F1         -7.4505   -7.4851    8.7717 F         1 <0>        -0.1361
     36 H3          1.0915    2.2780   -0.0518 H         1 <0>         0.0799
     37 H4         -0.6874    2.2837   -0.1118 H         1 <0>         0.0733
     38 H5          0.1499    2.1957    1.4565 H         1 <0>         0.0726
     39 H6         -0.8129    0.3457   -1.5646 H         1 <0>         0.1339
     40 H7         -0.8212   -2.1095   -1.7105 H         1 <0>         0.1349
     41 H8          1.1786   -2.3220    2.0774 H         1 <0>         0.1346
     42 H9          1.1856    0.1346    2.1989 H         1 <0>         0.1320
     43 H10         1.2815   -4.0736    3.0136 H         1 <0>         0.1032
     44 H11        -0.2092   -3.1376    2.6849 H         1 <0>         0.1029
     45 H12         0.0466   -6.5516    0.4249 H         1 <0>         0.0909
     46 H13         1.4532   -6.3372    1.5126 H         1 <0>         0.0852
     47 H14        -2.4876   -7.0446    2.9216 H         1 <0>         0.0956
     48 H15        -2.2688   -6.1076    1.4233 H         1 <0>         0.1191
     49 H16        -2.7043   -8.5078    0.9365 H         1 <0>         0.1403
     50 H17        -1.0823   -8.0184    0.3917 H         1 <0>         0.1351
     51 H18        -1.6749   -9.3374    2.9443 H         1 <0>         0.4269
     52 H19         0.7066   -9.6417    3.0627 H         1 <0>         0.1395
     53 H20         0.8348   -8.6559    1.5866 H         1 <0>         0.1342
     54 H21         1.2211   -7.2675    3.5979 H         1 <0>         0.1257
     55 H22        -0.3672   -7.7492    4.2430 H         1 <0>         0.0965
     56 H23        -1.7109   -6.0263    5.5890 H         1 <0>         0.4018
     57 H24         0.5889   -6.8184    7.0243 H         1 <0>         0.0932
     58 H25         0.1983   -5.1406    7.4724 H         1 <0>         0.0877
     59 H26        -1.4956   -7.1775   10.0876 H         1 <0>         0.0723
     60 H27         0.0815   -7.5591    9.3559 H         1 <0>         0.0790
     61 H28        -0.3091   -5.8813    9.8039 H         1 <0>         0.0770
     62 H29        -4.5180   -4.1460    8.0476 H         1 <0>         0.1427
     63 H30        -6.8106   -4.9912    8.3453 H         1 <0>         0.1459
     64 H31        -5.2918   -8.9503    8.8346 H         1 <0>         0.1396
     65 H32        -2.9984   -8.1112    8.5253 H         1 <0>         0.1380
     66 H33        -1.0920  -10.0957    1.6047 H         1 <0>         0.4347
@<TRIPOS>BOND
     1    1    2 1
     2    1   36 1
     3    1   37 1
     4    1   38 1
     5    2    7 ar
     6    2    3 ar
     7    3    4 ar
     8    3   39 1
     9    4    5 ar
    10    4   40 1
    11    5    6 ar
    12    5    8 1
    13    6    7 ar
    14    6   41 1
    15    7   42 1
    16    8    9 2
    17    8   10 am
    18   10   15 1
    19   10   11 1
    20   11   12 1
    21   11   43 1
    22   11   44 1
    23   12   13 1
    24   12   14 1
    25   12   21 1
    26   14   20 1
    27   14   15 1
    28   14   16 1
    29   15   45 1
    30   15   46 1
    31   16   17 1
    32   16   47 1
    33   16   48 1
    34   17   18 1
    35   17   49 1
    36   17   50 1
    37   18   19 1
    38   18   51 1
    39   18   66 1
    40   19   20 1
    41   19   52 1
    42   19   53 1
    43   20   54 1
    44   20   55 1
    45   21   22 2
    46   21   23 am
    47   23   24 1
    48   23   56 1
    49   24   25 1
    50   24   57 1
    51   24   58 1
    52   25   26 1
    53   25   27 1
    54   25   28 1
    55   27   59 1
    56   27   60 1
    57   27   61 1
    58   28   29 1
    59   29   34 ar
    60   29   30 ar
    61   30   31 ar
    62   30   62 1
    63   31   32 ar
    64   31   63 1
    65   32   33 ar
    66   32   35 1
    67   33   34 ar
    68   33   64 1
    69   34   65 1
@<TRIPOS>MOLECULE
ZINC39684462
   68    70     0     0     0
SMALL
USER_CHARGES

@<TRIPOS>ATOM
      1 C1         -0.1206    1.4235   -0.0067 C.3       1 <0>        -0.1801
      2 C2         -0.3764   -0.0805    0.1092 C.3       1 <0>         0.0726
      3 H1          0.0846   -0.5937   -0.7347 H         1 <0>         0.1043
      4 C3         -1.8610   -0.3394    0.1044 C.2       1 <0>         0.5535
      5 O1         -2.3989   -0.8035    1.0874 O.2       1 <0>        -0.5071
      6 N1         -2.5910   -0.0552   -0.9923 N.am      1 <0>        -0.6158
      7 C4         -2.1161    0.5051   -2.2794 C.3       1 <0>         0.1114
      8 C5         -2.9220   -0.2545   -3.3569 C.3       1 <0>        -0.1165
      9 H2         -3.1833    0.4141   -4.1771 H         1 <0>         0.1178
     10 C6         -4.1908   -0.7344   -2.6323 C.3       1 <0>        -0.0721
     11 C7         -4.0495   -0.2386   -1.1857 C.3       1 <0>         0.1093
     12 C8         -5.4313   -0.1279   -3.2810 C.3       1 <0>        -0.1335
     13 C9         -6.6824   -0.6653   -2.5804 C.3       1 <0>        -0.0104
     14 N2         -6.7155   -2.1288   -2.6881 N.4       1 <0>        -0.5044
     15 C10        -5.5671   -2.7088   -1.9813 C.3       1 <0>        -0.0098
     16 C11        -4.2688   -2.2580   -2.6567 C.3       1 <0>        -0.1477
     17 C12        -2.1321   -1.4304   -3.8711 C.2       1 <0>         0.5156
     18 O2         -1.3486   -2.0003   -3.1415 O.2       1 <0>        -0.5191
     19 N3         -2.2963   -1.8487   -5.1417 N.am      1 <0>        -0.7205
     20 C13        -1.5285   -2.9918   -5.6416 C.3       1 <0>         0.1503
     21 H3         -0.5362   -2.9882   -5.1905 H         1 <0>         0.0922
     22 C14        -2.2503   -4.2903   -5.2758 C.3       1 <0>        -0.1675
     23 C15        -1.3975   -2.8922   -7.1627 C.3       1 <0>        -0.0756
     24 C16        -0.6756   -1.5938   -7.5285 C.3       1 <0>        -0.1438
     25 C17        -0.5955   -4.0861   -7.6848 C.3       1 <0>        -0.1468
     26 C18        -2.7903   -2.8973   -7.7960 C.3       1 <0>        -0.1454
     27 O3          0.1880   -0.5671    1.3286 O.3       1 <0>        -0.2872
     28 C19         1.5044   -0.9041    1.3079 C.ar      1 <0>         0.1244
     29 C20         2.0894   -1.4893    2.4214 C.ar      1 <0>        -0.1463
     30 C21         3.4276   -1.8314    2.3977 C.ar      1 <0>        -0.0776
     31 C22         4.1839   -1.5905    1.2656 C.ar      1 <0>        -0.1528
     32 C23         3.6034   -1.0070    0.1547 C.ar      1 <0>        -0.0794
     33 C24         2.2641   -0.6687    0.1712 C.ar      1 <0>        -0.2102
     34 H4          0.9532    1.6107   -0.0032 H         1 <0>         0.0820
     35 H5         -0.5511    1.7946   -0.9368 H         1 <0>         0.0765
     36 H6         -0.5816    1.9366    0.8372 H         1 <0>         0.0774
     37 H7         -2.3271    1.5733   -2.3297 H         1 <0>         0.0941
     38 H8         -1.0489    0.3214   -2.4031 H         1 <0>         0.0968
     39 H9         -4.4349   -0.9836   -0.4897 H         1 <0>         0.0893
     40 H10        -4.5724    0.7093   -1.0579 H         1 <0>         0.0869
     41 H11        -5.3983    0.9573   -3.1852 H         1 <0>         0.1225
     42 H12        -5.4599   -0.3999   -4.3361 H         1 <0>         0.0975
     43 H13        -6.6609   -0.3789   -1.5289 H         1 <0>         0.1334
     44 H14        -7.5711   -0.2463   -3.0525 H         1 <0>         0.1405
     45 H15        -7.5704   -2.4755   -2.2794 H         1 <0>         0.4345
     46 H16        -5.5721   -2.3738   -0.9441 H         1 <0>         0.1347
     47 H17        -5.6335   -3.7963   -2.0117 H         1 <0>         0.1385
     48 H18        -4.2557   -2.6065   -3.6894 H         1 <0>         0.0963
     49 H19        -3.4160   -2.6746   -2.1206 H         1 <0>         0.1242
     50 H20        -2.9230   -1.3929   -5.7252 H         1 <0>         0.3979
     51 H21        -3.2425   -4.2939   -5.7269 H         1 <0>         0.0581
     52 H22        -1.6790   -5.1408   -5.6477 H         1 <0>         0.0749
     53 H23        -2.3436   -4.3613   -4.1921 H         1 <0>         0.0568
     54 H24         0.3166   -1.5902   -7.0774 H         1 <0>         0.0584
     55 H25        -0.5823   -1.5228   -8.6122 H         1 <0>         0.0622
     56 H26        -1.2470   -0.7433   -7.1566 H         1 <0>         0.0526
     57 H27        -1.1098   -5.0111   -7.4242 H         1 <0>         0.0621
     58 H28        -0.5022   -4.0151   -8.7685 H         1 <0>         0.0643
     59 H29         0.3967   -4.0825   -7.2337 H         1 <0>         0.0606
     60 H30        -3.3616   -2.0468   -7.4240 H         1 <0>         0.0477
     61 H31        -2.6969   -2.8264   -8.8796 H         1 <0>         0.0644
     62 H32        -3.3045   -3.8224   -7.5354 H         1 <0>         0.0614
     63 H33         1.4992   -1.6770    3.3062 H         1 <0>         0.1325
     64 H34         3.8835   -2.2870    3.2643 H         1 <0>         0.1329
     65 H35         5.2301   -1.8583    1.2491 H         1 <0>         0.1270
     66 H36         4.1964   -0.8195   -0.7283 H         1 <0>         0.1264
     67 H37         1.8100   -0.2169   -0.6984 H         1 <0>         0.1255
     68 H38        -6.6790   -2.3940   -3.6609 H         1 <0>         0.4272
@<TRIPOS>BOND
     1    1    2 1
     2    1   34 1
     3    1   35 1
     4    1   36 1
     5    2    3 1
     6    2    4 1
     7    2   27 1
     8    4    5 2
     9    4    6 am
    10    6   11 1
    11    6    7 1
    12    7    8 1
    13    7   37 1
    14    7   38 1
    15    8    9 1
    16    8   10 1
    17    8   17 1
    18   10   16 1
    19   10   11 1
    20   10   12 1
    21   11   39 1
    22   11   40 1
    23   12   13 1
    24   12   41 1
    25   12   42 1
    26   13   14 1
    27   13   43 1
    28   13   44 1
    29   14   15 1
    30   14   45 1
    31   14   68 1
    32   15   16 1
    33   15   46 1
    34   15   47 1
    35   16   48 1
    36   16   49 1
    37   17   18 2
    38   17   19 am
    39   19   20 1
    40   19   50 1
    41   20   21 1
    42   20   22 1
    43   20   23 1
    44   22   51 1
    45   22   52 1
    46   22   53 1
    47   23   24 1
    48   23   25 1
    49   23   26 1
    50   24   54 1
    51   24   55 1
    52   24   56 1
    53   25   57 1
    54   25   58 1
    55   25   59 1
    56   26   60 1
    57   26   61 1
    58   26   62 1
    59   27   28 1
    60   28   33 ar
    61   28   29 ar
    62   29   30 ar
    63   29   63 1
    64   30   31 ar
    65   30   64 1
    66   31   32 ar
    67   31   65 1
    68   32   33 ar
    69   32   66 1
    70   33   67 1
@<TRIPOS>MOLECULE
ZINC13124156
   49    52     0     0     0
SMALL
USER_CHARGES

@<TRIPOS>ATOM
      1 C1         -0.0167    1.3782    0.0096 C.ar      1 <0>        -0.0703
      2 C2          1.1703    2.0860    0.0021 C.ar      1 <0>        -0.1506
      3 C3          2.3786    1.4101   -0.0131 C.ar      1 <0>         0.1107
      4 C4          2.3962    0.0256   -0.0207 C.ar      1 <0>        -0.1505
      5 C5          1.2079   -0.6800   -0.0132 C.ar      1 <0>        -0.0738
      6 C6          0.0021   -0.0041    0.0020 C.ar      1 <0>        -0.1158
      7 C7         -1.2930   -0.7747    0.0103 C.3       1 <0>         0.2042
      8 H1         -2.0975   -0.1347    0.3726 H         1 <0>         0.0912
      9 C8         -1.6160   -1.2537   -1.4093 C.3       1 <0>        -0.1519
     10 C9         -2.9662   -1.9792   -1.4209 C.3       1 <0>         0.1299
     11 H2         -3.7686   -1.2599   -1.2568 H         1 <0>         0.1350
     12 N1         -2.9766   -2.9792   -0.3495 N.pl3     1 <0>        -0.3962
     13 C10        -2.1252   -2.9544    0.7187 C.2       1 <0>         0.3642
     14 C11        -2.4048   -4.0140    1.5029 C.2       1 <0>        -0.2633
     15 C12        -3.4699   -4.7214    0.9009 C.2       1 <0>         0.0681
     16 N2         -3.8062   -4.0912   -0.2108 N.2       1 <0>        -0.2503
     17 C13        -4.0983   -5.9519    1.4238 C.2       1 <0>         0.6014
     18 O1         -3.7015   -6.4429    2.4627 O.2       1 <0>        -0.5247
     19 N3         -5.1115   -6.5303    0.7489 N.am      1 <0>        -0.7093
     20 C14        -5.7346   -7.7505    1.2674 C.3       1 <0>         0.1099
     21 C15        -6.8495   -8.1964    0.3192 C.3       1 <0>         0.0669
     22 H3         -7.5501   -7.3765    0.1609 H         1 <0>         0.0894
     23 C16        -7.5913   -9.4110    0.9174 C.3       1 <0>        -0.1478
     24 C17        -7.8462  -10.2917   -0.3362 C.3       1 <0>        -0.1563
     25 C18        -6.5735   -9.9941   -1.1684 C.3       1 <0>         0.0483
     26 O2         -6.2876   -8.6042   -0.9337 O.3       1 <0>        -0.3745
     27 N4         -1.1630   -1.9533    0.8895 N.pl3     1 <0>        -0.7264
     28 C19        -3.1654   -2.6697   -2.7717 C.3       1 <0>         0.4555
     29 F1         -2.1376   -3.5963   -2.9778 F         1 <0>        -0.1722
     30 F2         -4.3981   -3.3311   -2.7800 F         1 <0>        -0.1595
     31 F3         -3.1424   -1.7132   -3.7923 F         1 <0>        -0.1725
     32 F4          3.5396    2.1009   -0.0209 F         1 <0>        -0.1349
     33 H4         -0.9592    1.9052    0.0260 H         1 <0>         0.1385
     34 H5          1.1554    3.1659    0.0077 H         1 <0>         0.1414
     35 H6          3.3381   -0.5027   -0.0329 H         1 <0>         0.1403
     36 H7          1.2213   -1.7599   -0.0195 H         1 <0>         0.1361
     37 H8         -1.6604   -0.3954   -2.0797 H         1 <0>         0.1222
     38 H9         -0.8357   -1.9356   -1.7476 H         1 <0>         0.1008
     39 H10        -1.9053   -4.2753    2.4241 H         1 <0>         0.1629
     40 H11        -5.4281   -6.1386   -0.0800 H         1 <0>         0.4119
     41 H12        -4.9847   -8.5380    1.3422 H         1 <0>         0.0761
     42 H13        -6.1540   -7.5534    2.2540 H         1 <0>         0.0824
     43 H14        -6.9618   -9.9340    1.6374 H         1 <0>         0.0834
     44 H15        -8.5324   -9.1045    1.3740 H         1 <0>         0.0877
     45 H16        -7.9034  -11.3471   -0.0698 H         1 <0>         0.0860
     46 H17        -8.7446   -9.9725   -0.8644 H         1 <0>         0.0802
     47 H18        -5.7447  -10.6144   -0.8272 H         1 <0>         0.0622
     48 H19        -6.7651  -10.1665   -2.2275 H         1 <0>         0.0873
     49 H20        -0.4510   -2.0300    1.5438 H         1 <0>         0.4265
@<TRIPOS>BOND
     1    1    6 ar
     2    1    2 ar
     3    1   33 1
     4    2    3 ar
     5    2   34 1
     6    3    4 ar
     7    3   32 1
     8    4    5 ar
     9    4   35 1
    10    5    6 ar
    11    5   36 1
    12    6    7 1
    13    7    8 1
    14    7   27 1
    15    7    9 1
    16    9   10 1
    17    9   37 1
    18    9   38 1
    19   10   11 1
    20   10   12 1
    21   10   28 1
    22   12   16 1
    23   12   13 1
    24   13   14 2
    25   13   27 1
    26   14   15 1
    27   14   39 1
    28   15   16 2
    29   15   17 1
    30   17   18 2
    31   17   19 am
    32   19   20 1
    33   19   40 1
    34   20   21 1
    35   20   41 1
    36   20   42 1
    37   21   22 1
    38   21   26 1
    39   21   23 1
    40   23   24 1
    41   23   43 1
    42   23   44 1
    43   24   25 1
    44   24   45 1
    45   24   46 1
    46   25   26 1
    47   25   47 1
    48   25   48 1
    49   27   49 1
    50   28   29 1
    51   28   30 1
    52   28   31 1
@<TRIPOS>MOLECULE
ZINC65074689
   58    61     0     0     0
SMALL
USER_CHARGES

@<TRIPOS>ATOM
      1 C1         -0.0184    1.5028    0.0103 C.3       1 <0>        -0.1239
      2 C2          0.0021   -0.0041    0.0020 C.ar      1 <0>        -0.0777
      3 C3          0.0057   -0.6888   -1.1991 C.ar      1 <0>        -0.0926
      4 C4          0.0245   -2.0707   -1.2067 C.ar      1 <0>        -0.1110
      5 C5          0.0400   -2.7685   -0.0132 C.ar      1 <0>        -0.0997
      6 C6          0.0373   -2.0840    1.1875 C.ar      1 <0>        -0.1335
      7 C7          0.0229   -0.7015    1.1951 C.ar      1 <0>        -0.0958
      8 C8          0.0538   -2.8445    2.4885 C.3       1 <0>         0.1221
      9 N1          1.4402   -3.0731    2.9030 N.pl3     1 <0>        -0.6625
     10 C9          1.7053   -3.7496    4.0644 C.cat     1 <0>         0.4884
     11 N2          0.7164   -4.1710    4.7581 N.pl3     1 <0>        -0.6054
     12 C10         0.8586   -4.8946    6.0173 C.3       1 <0>         0.0413
     13 C11         2.2852   -5.4300    6.1572 C.3       1 <0>         0.0236
     14 N3          3.2256   -4.3327    5.8731 N.3       1 <0>        -0.6457
     15 C12         3.1416   -3.9614    4.4513 C.3       1 <0>         0.1339
     16 C13         3.7418   -5.0809    3.5960 C.3       1 <0>        -0.1234
     17 C14         5.1940   -5.3196    4.0209 C.3       1 <0>         0.1316
     18 N4          5.9244   -4.0470    3.9446 N.pl3     1 <0>        -0.9970
     19 C15         5.3843   -2.8794    4.6545 C.3       1 <0>         0.1303
     20 C16         3.9299   -2.6688    4.2226 C.3       1 <0>        -0.1341
     21 S1          7.3294   -3.9310    3.0758 S.o2      1 <0>         2.6868
     22 O1          8.0562   -2.8393    3.6229 O.2       1 <0>        -0.9443
     23 O2          7.8690   -5.2433    2.9991 O.2       1 <0>        -0.9439
     24 C17         6.8896   -3.4704    1.4330 C.ar      1 <0>        -0.6809
     25 C18         6.6215   -4.4452    0.4902 C.ar      1 <0>        -0.0232
     26 C19         6.2765   -4.0839   -0.7987 C.ar      1 <0>        -0.1378
     27 C20         6.1990   -2.7478   -1.1447 C.ar      1 <0>        -0.0604
     28 C21         6.4661   -1.7730   -0.2017 C.ar      1 <0>        -0.1379
     29 C22         6.8070   -2.1343    1.0883 C.ar      1 <0>        -0.0239
     30 H1          1.0042    1.8801    0.0026 H         1 <0>         0.0773
     31 H2         -0.5455    1.8639   -0.8728 H         1 <0>         0.0747
     32 H3         -0.5286    1.8543    0.9071 H         1 <0>         0.0708
     33 H4         -0.0064   -0.1437   -2.1314 H         1 <0>         0.1327
     34 H5          0.0266   -2.6056   -2.1449 H         1 <0>         0.1330
     35 H6          0.0540   -3.8484   -0.0191 H         1 <0>         0.1255
     36 H7          0.0246   -0.1666    2.1333 H         1 <0>         0.1258
     37 H8         -0.4637   -2.2663    3.2539 H         1 <0>         0.1005
     38 H9         -0.4484   -3.8028    2.3555 H         1 <0>         0.1006
     39 H10         2.1705   -2.7454    2.3551 H         1 <0>         0.4381
     40 H11         0.6418   -4.2220    6.8472 H         1 <0>         0.1150
     41 H12         0.1562   -5.7279    6.0367 H         1 <0>         0.1273
     42 H13         2.4422   -5.7932    7.1729 H         1 <0>         0.1323
     43 H14         2.4434   -6.2412    5.4465 H         1 <0>         0.1050
     44 H15         3.0456   -3.5388    6.4692 H         1 <0>         0.3651
     45 H16         3.1662   -5.9956    3.7379 H         1 <0>         0.0921
     46 H17         3.7130   -4.7915    2.5455 H         1 <0>         0.0873
     47 H18         5.2185   -5.6941    5.0442 H         1 <0>         0.0995
     48 H19         5.6556   -6.0464    3.3524 H         1 <0>         0.1029
     49 H20         5.4245   -3.0547    5.7296 H         1 <0>         0.0976
     50 H21         5.9714   -1.9958    4.4041 H         1 <0>         0.1049
     51 H22         3.8987   -2.4059    3.1653 H         1 <0>         0.0869
     52 H23         3.4884   -1.8646    4.8112 H         1 <0>         0.0959
     53 H24         6.6821   -5.4891    0.7605 H         1 <0>         0.1396
     54 H25         6.0677   -4.8455   -1.5355 H         1 <0>         0.1348
     55 H26         5.9301   -2.4655   -2.1519 H         1 <0>         0.1330
     56 H27         6.4059   -0.7291   -0.4721 H         1 <0>         0.1346
     57 H28         7.0121   -1.3727    1.8261 H         1 <0>         0.1397
     58 H29        -0.1795   -3.9994    4.4282 H         1 <0>         0.4242
@<TRIPOS>BOND
     1    1    2 1
     2    1   30 1
     3    1   31 1
     4    1   32 1
     5    2    7 ar
     6    2    3 ar
     7    3    4 ar
     8    3   33 1
     9    4    5 ar
    10    4   34 1
    11    5    6 ar
    12    5   35 1
    13    6    7 ar
    14    6    8 1
    15    7   36 1
    16    8    9 1
    17    8   37 1
    18    8   38 1
    19    9   10 1
    20    9   39 1
    21   10   15 1
    22   10   11 2
    23   11   12 1
    24   11   58 1
    25   12   13 1
    26   12   40 1
    27   12   41 1
    28   13   14 1
    29   13   42 1
    30   13   43 1
    31   14   15 1
    32   14   44 1
    33   15   20 1
    34   15   16 1
    35   16   17 1
    36   16   45 1
    37   16   46 1
    38   17   18 1
    39   17   47 1
    40   17   48 1
    41   18   19 1
    42   18   21 1
    43   19   20 1
    44   19   49 1
    45   19   50 1
    46   20   51 1
    47   20   52 1
    48   21   22 2
    49   21   23 2
    50   21   24 1
    51   24   29 ar
    52   24   25 ar
    53   25   26 ar
    54   25   53 1
    55   26   27 ar
    56   26   54 1
    57   27   28 ar
    58   27   55 1
    59   28   29 ar
    60   28   56 1
    61   29   57 1
@<TRIPOS>MOLECULE
ZINC14962356
   60    63     0     0     0
SMALL
USER_CHARGES
2-chloro-6-methoxy-4-[[[(4R)-1-(4-methoxyphenyl)-6,6-dimethyl-5,7-dihydro-4H-indazol-4-yl]amino]methyl]phenol
@<TRIPOS>ATOM
      1 C1          8.6592    6.7576    0.7749 C.3       1 <0>        -0.1595
      2 C2          7.4724    7.6166    0.3339 C.3       1 <0>        -0.0431
      3 C3          7.6053    7.9445   -1.1584 C.3       1 <0>        -0.0679
      4 C4          7.3712    6.6797   -1.9459 C.2       1 <0>         0.1506
      5 C5          6.7863    5.5641   -1.4391 C.2       1 <0>        -0.3118
      6 C6          6.7435    4.6043   -2.4481 C.2       1 <0>         0.0563
      7 N1          7.2818    5.1216   -3.5261 N.2       1 <0>        -0.2637
      8 N2          7.6845    6.4329   -3.2311 N.pl3     1 <0>        -0.2852
      9 C7          8.3028    7.3271   -4.1178 C.ar      1 <0>         0.0790
     10 C8          8.0188    8.6842   -4.0458 C.ar      1 <0>        -0.0782
     11 C9          8.6319    9.5646   -4.9149 C.ar      1 <0>        -0.1904
     12 C10         9.5230    9.0919   -5.8675 C.ar      1 <0>         0.1497
     13 C11         9.8028    7.7351   -5.9435 C.ar      1 <0>        -0.1329
     14 C12         9.1945    6.8546   -5.0712 C.ar      1 <0>        -0.0550
     15 O1         10.1218    9.9584   -6.7269 O.3       1 <0>        -0.3074
     16 C13         9.7875   11.3411   -6.5919 C.3       1 <0>         0.0217
     17 C14         6.2871    5.4407   -0.0210 C.3       1 <0>         0.1257
     18 H1          6.9912    4.8510    0.5660 H         1 <0>         0.1472
     19 C15         6.1693    6.8491    0.5744 C.3       1 <0>        -0.1358
     20 C16         5.1069    3.3266   -0.0252 C.3       1 <0>         0.0484
     21 C17         3.7388    2.6945   -0.0185 C.ar      1 <0>        -0.1211
     22 C18         3.1033    2.4128   -1.2138 C.ar      1 <0>        -0.1731
     23 C19         1.8455    1.8317   -1.2099 C.ar      1 <0>         0.1253
     24 C20         1.2239    1.5329   -0.0014 C.ar      1 <0>         0.1216
     25 C21         1.8637    1.8229    1.1937 C.ar      1 <0>        -0.0315
     26 C22         3.1222    2.3981    1.1824 C.ar      1 <0>        -0.1079
     27 Cl1         1.0890    1.4585    2.7040 Cl        1 <0>        -0.0189
     28 O2         -0.0110    0.9628    0.0073 O.3       1 <0>        -0.4697
     29 O3          1.2200    1.5534   -2.3849 O.3       1 <0>        -0.2933
     30 C23         1.9178    1.8873   -3.5864 C.3       1 <0>         0.0201
     31 C24         7.4554    8.9158    1.1418 C.3       1 <0>        -0.1487
     32 H2          9.5866    7.3042    0.6042 H         1 <0>         0.0690
     33 H3          8.5648    6.5245    1.8355 H         1 <0>         0.0685
     34 H4          8.6717    5.8321    0.1992 H         1 <0>         0.0614
     35 H5          8.6063    8.3244   -1.3631 H         1 <0>         0.1007
     36 H6          6.8642    8.6934   -1.4378 H         1 <0>         0.1006
     37 H7          6.3378    3.6075   -2.3580 H         1 <0>         0.1869
     38 H8          7.3217    9.0517   -3.3072 H         1 <0>         0.1340
     39 H9          8.4144   10.6208   -4.8561 H         1 <0>         0.1448
     40 H10        10.4968    7.3677   -6.6850 H         1 <0>         0.1483
     41 H11         9.4127    5.7985   -5.1302 H         1 <0>         0.1433
     42 H12        10.0584   11.6847   -5.5936 H         1 <0>         0.0609
     43 H13        10.3330   11.9212   -7.3363 H         1 <0>         0.1094
     44 H14         8.7160   11.4723   -6.7430 H         1 <0>         0.0607
     45 H15         5.3434    7.3770    0.0978 H         1 <0>         0.0908
     46 H16         5.9834    6.7760    1.6460 H         1 <0>         0.1005
     47 H17         5.6592    3.0069    0.8585 H         1 <0>         0.1457
     48 H18         5.6452    3.0182   -0.9214 H         1 <0>         0.1374
     49 H19         3.5876    2.6455   -2.1506 H         1 <0>         0.1467
     50 H20         3.6217    2.6200    2.1139 H         1 <0>         0.1494
     51 H21         0.0021   -0.0041    0.0020 H         1 <0>         0.4037
     52 H22         2.1149    2.9592   -3.6062 H         1 <0>         0.0595
     53 H23         2.8619    1.3437   -3.6213 H         1 <0>         0.0624
     54 H24         1.3090    1.6139   -4.4482 H         1 <0>         0.1137
     55 H25         6.6101    9.5280    0.8276 H         1 <0>         0.0639
     56 H26         7.3609    8.6828    2.2024 H         1 <0>         0.0693
     57 H27         8.3830    9.4620    0.9710 H         1 <0>         0.0700
     58 N3          4.9612    4.7944   -0.0147 N.4       1 <0>        -0.5161
     59 H28         4.4370    5.0887   -0.8471 H         1 <0>         0.4319
     60 H29         4.4502    5.0780    0.8295 H         1 <0>         0.4324
@<TRIPOS>BOND
     1    1    2 1
     2    1   32 1
     3    1   33 1
     4    1   34 1
     5    2   19 1
     6    2    3 1
     7    2   31 1
     8    3    4 1
     9    3   35 1
    10    3   36 1
    11    4    8 1
    12    4    5 2
    13    5    6 1
    14    5   17 1
    15    6    7 2
    16    6   37 1
    17    7    8 1
    18    8    9 1
    19    9   14 ar
    20    9   10 ar
    21   10   11 ar
    22   10   38 1
    23   11   12 ar
    24   11   39 1
    25   12   13 ar
    26   12   15 1
    27   13   14 ar
    28   13   40 1
    29   14   41 1
    30   15   16 1
    31   16   42 1
    32   16   43 1
    33   16   44 1
    34   17   18 1
    35   17   19 1
    36   17   58 1
    37   19   45 1
    38   19   46 1
    39   20   21 1
    40   20   47 1
    41   20   48 1
    42   20   58 1
    43   21   26 ar
    44   21   22 ar
    45   22   23 ar
    46   22   49 1
    47   23   24 ar
    48   23   29 1
    49   24   25 ar
    50   24   28 1
    51   25   26 ar
    52   25   27 1
    53   26   50 1
    54   28   51 1
    55   29   30 1
    56   30   52 1
    57   30   53 1
    58   30   54 1
    59   31   55 1
    60   31   56 1
    61   31   57 1
    62   58   59 1
    63   58   60 1
@<TRIPOS>MOLECULE
ZINC38547556
   58    61     0     0     0
SMALL
USER_CHARGES

@<TRIPOS>ATOM
      1 C1         -1.2129    0.4586   -0.9576 C.3       1 <0>        -0.1417
      2 C2         -0.9822   -1.0085   -0.7016 C.ar      1 <0>         0.1829
      3 C3         -1.0509   -1.9025   -1.7515 C.ar      1 <0>        -0.1709
      4 C4         -0.8375   -3.2529   -1.5099 C.ar      1 <0>         0.0421
      5 C5         -0.5616   -3.6566   -0.2158 C.ar      1 <0>        -0.1952
      6 C6         -0.5077   -2.7013    0.7938 C.ar      1 <0>         0.4490
      7 N1         -0.7118   -1.4213    0.5221 N.ar      1 <0>        -0.5044
      8 N2         -0.2319   -3.0929    2.0987 N.pl3     1 <0>        -0.7041
      9 C7          0.0004   -4.5065    2.4057 C.3       1 <0>         0.2584
     10 H1          0.6014   -4.9559    1.6152 H         1 <0>         0.1254
     11 C8         -1.3216   -5.2236    2.5009 C.ar      1 <0>        -0.1513
     12 C9         -2.4835   -4.5066    2.7126 C.ar      1 <0>        -0.0856
     13 C10        -3.6965   -5.1639    2.8006 C.ar      1 <0>        -0.1456
     14 C11        -3.7504   -6.5402    2.6765 C.ar      1 <0>        -0.0643
     15 C12        -2.5917   -7.2615    2.4643 C.ar      1 <0>        -0.1943
     16 C13        -1.3737   -6.6036    2.3704 C.ar      1 <0>         0.1525
     17 O1         -0.2330   -7.3106    2.1560 O.3       1 <0>        -0.3071
     18 C14        -0.3621   -8.7282    2.0315 C.3       1 <0>         0.0208
     19 C15         0.7303   -4.6220    3.7190 C.2       1 <0>        -0.1696
     20 C16         1.8495   -5.4259    3.8341 C.2       1 <0>        -0.0919
     21 C17         2.4822   -5.5067    5.0292 C.2       1 <0>        -0.1731
     22 S1          1.4932   -4.4256    6.0487 S.3       1 <0>         0.1835
     23 C18         0.3027   -3.9317    4.8134 C.2       1 <0>         0.0640
     24 N3         -0.7850   -3.0650    4.9369 N.am      1 <0>        -0.6274
     25 C19        -0.9874   -2.3978    6.0903 C.2       1 <0>         0.6008
     26 O2         -0.2219   -2.5508    7.0243 O.2       1 <0>        -0.4685
     27 C20        -2.1296   -1.4877    6.2200 C.2       1 <0>        -0.1036
     28 C21        -2.4463   -0.7497    7.3247 C.2       1 <0>        -0.0875
     29 C22        -3.6073   -0.0272    7.0080 C.2       1 <0>        -0.2180
     30 C23        -3.9443   -0.3516    5.7403 C.2       1 <0>         0.0085
     31 O3         -3.0486   -1.2280    5.2671 O.3       1 <0>        -0.1764
     32 C24         3.7054   -6.3042    5.4019 C.3       1 <0>        -0.0710
     33 C25         2.3581   -6.2018    2.6465 C.3       1 <0>        -0.1086
     34 H2         -0.2645    0.9389   -1.1984 H         1 <0>         0.1140
     35 H3         -1.9029    0.5775   -1.7929 H         1 <0>         0.1179
     36 H4         -1.6381    0.9204   -0.0665 H         1 <0>         0.0934
     37 H5         -1.2689   -1.5548   -2.7505 H         1 <0>         0.1807
     38 H6         -0.8862   -3.9721   -2.3141 H         1 <0>         0.1755
     39 H7         -0.3908   -4.6993    0.0077 H         1 <0>         0.1773
     40 H8         -0.1932   -2.4303    2.8061 H         1 <0>         0.4114
     41 H9         -2.4440   -3.4317    2.8099 H         1 <0>         0.1097
     42 H10        -4.6035   -4.6017    2.9669 H         1 <0>         0.1289
     43 H11        -4.6991   -7.0515    2.7460 H         1 <0>         0.1335
     44 H12        -2.6343   -8.3363    2.3675 H         1 <0>         0.1382
     45 H13         0.6205   -9.1692    1.8635 H         1 <0>         0.1076
     46 H14        -0.7916   -9.1358    2.9467 H         1 <0>         0.0609
     47 H15        -1.0136   -8.9612    1.1893 H         1 <0>         0.0605
     48 H16        -1.3950   -2.9431    4.1926 H         1 <0>         0.4108
     49 H17        -1.9079   -0.7268    8.2606 H         1 <0>         0.1682
     50 H18        -4.1328    0.6587    7.6560 H         1 <0>         0.1664
     51 H19        -4.7936    0.0352    5.1967 H         1 <0>         0.2179
     52 H20         4.5978   -5.7027    5.2291 H         1 <0>         0.0815
     53 H21         3.6519   -6.5807    6.4549 H         1 <0>         0.0757
     54 H22         3.7512   -7.2060    4.7914 H         1 <0>         0.0839
     55 H23         3.1097   -5.6119    2.1219 H         1 <0>         0.0663
     56 H24         2.8027   -7.1370    2.9868 H         1 <0>         0.0728
     57 H25         1.5297   -6.4177    1.9717 H         1 <0>         0.0825
     58 H26        -0.6651   -0.7718    1.2410 H         1 <0>         0.4370
@<TRIPOS>BOND
     1    1    2 1
     2    1   34 1
     3    1   35 1
     4    1   36 1
     5    2    7 ar
     6    2    3 ar
     7    3    4 ar
     8    3   37 1
     9    4    5 ar
    10    4   38 1
    11    5    6 ar
    12    5   39 1
    13    6    7 ar
    14    6    8 1
    15    7   58 1
    16    8    9 1
    17    8   40 1
    18    9   10 1
    19    9   11 1
    20    9   19 1
    21   11   16 ar
    22   11   12 ar
    23   12   13 ar
    24   12   41 1
    25   13   14 ar
    26   13   42 1
    27   14   15 ar
    28   14   43 1
    29   15   16 ar
    30   15   44 1
    31   16   17 1
    32   17   18 1
    33   18   45 1
    34   18   46 1
    35   18   47 1
    36   19   23 2
    37   19   20 1
    38   20   21 2
    39   20   33 1
    40   21   22 1
    41   21   32 1
    42   22   23 1
    43   23   24 1
    44   24   25 am
    45   24   48 1
    46   25   26 2
    47   25   27 1
    48   27   31 1
    49   27   28 2
    50   28   29 1
    51   28   49 1
    52   29   30 2
    53   29   50 1
    54   30   31 1
    55   30   51 1
    56   32   52 1
    57   32   53 1
    58   32   54 1
    59   33   55 1
    60   33   56 1
    61   33   57 1
@<TRIPOS>MOLECULE
ZINC39678226
   76    79     0     0     0
SMALL
USER_CHARGES

@<TRIPOS>ATOM
      1 C1          1.1077    2.7086   -5.0271 C.3       1 <0>        -0.1565
      2 C2          1.7253    1.3107   -4.9552 C.3       1 <0>        -0.1218
      3 C3          0.9678    0.4708   -3.9248 C.3       1 <0>        -0.1075
      4 C4          1.5980   -0.9207   -3.8383 C.3       1 <0>        -0.0988
      5 H1          1.6334   -1.3659   -4.8326 H         1 <0>         0.0814
      6 C5          3.0181   -0.8036   -3.2810 C.3       1 <0>        -0.1464
      7 C6          0.7710   -1.7909   -2.9274 C.2       1 <0>         0.5424
      8 O1          0.1168   -1.2887   -2.0382 O.2       1 <0>        -0.5126
      9 N1          0.7584   -3.1274   -3.1009 N.am      1 <0>        -0.6196
     10 C7         -0.0608   -4.1293   -2.3791 C.3       1 <0>         0.1201
     11 C8         -0.4778   -5.1474   -3.4640 C.3       1 <0>        -0.1135
     12 H2         -0.4768   -6.1583   -3.0563 H         1 <0>         0.1136
     13 C9          0.5911   -5.0114   -4.5612 C.3       1 <0>        -0.0716
     14 C10         1.5564   -3.9267   -4.0615 C.3       1 <0>         0.1026
     15 C11         1.3300   -6.3333   -4.7459 C.3       1 <0>        -0.1346
     16 C12         2.3473   -6.1898   -5.8814 C.3       1 <0>        -0.0095
     17 N2          1.6524   -5.8177   -7.1196 N.4       1 <0>        -0.5049
     18 C13         1.0216   -4.5014   -6.9635 C.3       1 <0>        -0.0090
     19 C14        -0.0519   -4.5736   -5.8738 C.3       1 <0>        -0.1481
     20 C15        -1.8400   -4.8042   -4.0097 C.2       1 <0>         0.5140
     21 O2         -2.2181   -3.6518   -4.0159 O.2       1 <0>        -0.5137
     22 N3         -2.6380   -5.7778   -4.4910 N.am      1 <0>        -0.7193
     23 C16        -3.9162   -5.4338   -5.1188 C.3       1 <0>         0.1735
     24 C17        -4.6637   -6.6967   -5.4613 C.ar      1 <0>        -0.1282
     25 C18        -4.6705   -7.1654   -6.7606 C.ar      1 <0>        -0.0986
     26 C19        -5.3564   -8.3238   -7.0757 C.ar      1 <0>        -0.1258
     27 C20        -6.0375   -9.0173   -6.0918 C.ar      1 <0>        -0.0996
     28 C21        -6.0344   -8.5547   -4.7908 C.ar      1 <0>        -0.1256
     29 C22        -5.3418   -7.3939   -4.4697 C.ar      1 <0>         0.1953
     30 N4         -5.3322   -6.9259   -3.1537 N.pl3     1 <0>        -0.6773
     31 C23        -6.3586   -5.9841   -2.6867 C.3       1 <0>         0.1453
     32 C24        -7.0152   -6.5555   -1.4261 C.3       1 <0>        -0.1374
     33 C25        -5.9335   -6.8708   -0.3904 C.3       1 <0>        -0.1167
     34 C26        -4.9753   -7.9221   -0.9549 C.3       1 <0>        -0.1388
     35 C27        -4.2991   -7.3708   -2.2085 C.3       1 <0>         0.1532
     36 H3          0.0613    2.6289   -5.3218 H         1 <0>         0.0550
     37 H4          1.1744    3.1860   -4.0494 H         1 <0>         0.0578
     38 H5          1.6473    3.3070   -5.7611 H         1 <0>         0.0571
     39 H6          1.6586    0.8333   -5.9328 H         1 <0>         0.0574
     40 H7          2.7716    1.3905   -4.6604 H         1 <0>         0.0659
     41 H8          1.0224    0.9556   -2.9500 H         1 <0>         0.0779
     42 H9         -0.0755    0.3791   -4.2270 H         1 <0>         0.0674
     43 H10         3.6034   -0.1375   -3.9149 H         1 <0>         0.0756
     44 H11         2.9791   -0.4009   -2.2689 H         1 <0>         0.0679
     45 H12         3.4834   -1.7891   -3.2623 H         1 <0>         0.0550
     46 H13         0.5316   -4.6189   -1.6061 H         1 <0>         0.0844
     47 H14        -0.9409   -3.6572   -1.9426 H         1 <0>         0.0985
     48 H15         1.8891   -3.3030   -4.8912 H         1 <0>         0.0835
     49 H16         2.4106   -4.3820   -3.5603 H         1 <0>         0.0859
     50 H17         1.8490   -6.5921   -3.8230 H         1 <0>         0.1220
     51 H18         0.6155   -7.1180   -4.9946 H         1 <0>         0.0975
     52 H19         3.0711   -5.4162   -5.6248 H         1 <0>         0.1326
     53 H20         2.8655   -7.1376   -6.0267 H         1 <0>         0.1401
     54 H21         2.3159   -5.7833   -7.8789 H         1 <0>         0.4340
     55 H22         1.7769   -3.7680   -6.6811 H         1 <0>         0.1322
     56 H23         0.5624   -4.2047   -7.9064 H         1 <0>         0.1386
     57 H24        -0.8161   -5.2951   -6.1630 H         1 <0>         0.0970
     58 H25        -0.5074   -3.5917   -5.7461 H         1 <0>         0.1235
     59 H26        -2.3661   -6.7063   -4.4217 H         1 <0>         0.3974
     60 H27        -4.5108   -4.8356   -4.4283 H         1 <0>         0.0826
     61 H28        -3.7320   -4.8625   -6.0286 H         1 <0>         0.0676
     62 H29        -4.1397   -6.6262   -7.5312 H         1 <0>         0.1199
     63 H30        -5.3607   -8.6876   -8.0926 H         1 <0>         0.1248
     64 H31        -6.5725   -9.9216   -6.3415 H         1 <0>         0.1261
     65 H32        -6.5667   -9.0965   -4.0231 H         1 <0>         0.1248
     66 H33        -5.8959   -5.0248   -2.4548 H         1 <0>         0.0509
     67 H34        -7.1122   -5.8505   -3.4627 H         1 <0>         0.0683
     68 H35        -7.7107   -5.8240   -1.0146 H         1 <0>         0.0699
     69 H36        -7.5542   -7.4687   -1.6787 H         1 <0>         0.0643
     70 H37        -5.3787   -5.9621   -0.1567 H         1 <0>         0.0606
     71 H38        -6.4001   -7.2546    0.5168 H         1 <0>         0.0629
     72 H39        -4.2188   -8.1633   -0.2081 H         1 <0>         0.0676
     73 H40        -5.5334   -8.8224   -1.2120 H         1 <0>         0.0642
     74 H41        -3.6943   -8.1520   -2.6691 H         1 <0>         0.0610
     75 H42        -3.6647   -6.5272   -1.9368 H         1 <0>         0.0456
     76 H43         0.9442   -6.5062   -7.3262 H         1 <0>         0.4285
@<TRIPOS>BOND
     1    1    2 1
     2    1   36 1
     3    1   37 1
     4    1   38 1
     5    2    3 1
     6    2   39 1
     7    2   40 1
     8    3    4 1
     9    3   41 1
    10    3   42 1
    11    4    5 1
    12    4    6 1
    13    4    7 1
    14    6   43 1
    15    6   44 1
    16    6   45 1
    17    7    8 2
    18    7    9 am
    19    9   14 1
    20    9   10 1
    21   10   11 1
    22   10   46 1
    23   10   47 1
    24   11   12 1
    25   11   13 1
    26   11   20 1
    27   13   19 1
    28   13   14 1
    29   13   15 1
    30   14   48 1
    31   14   49 1
    32   15   16 1
    33   15   50 1
    34   15   51 1
    35   16   17 1
    36   16   52 1
    37   16   53 1
    38   17   18 1
    39   17   54 1
    40   17   76 1
    41   18   19 1
    42   18   55 1
    43   18   56 1
    44   19   57 1
    45   19   58 1
    46   20   21 2
    47   20   22 am
    48   22   23 1
    49   22   59 1
    50   23   24 1
    51   23   60 1
    52   23   61 1
    53   24   29 ar
    54   24   25 ar
    55   25   26 ar
    56   25   62 1
    57   26   27 ar
    58   26   63 1
    59   27   28 ar
    60   27   64 1
    61   28   29 ar
    62   28   65 1
    63   29   30 1
    64   30   35 1
    65   30   31 1
    66   31   32 1
    67   31   66 1
    68   31   67 1
    69   32   33 1
    70   32   68 1
    71   32   69 1
    72   33   34 1
    73   33   70 1
    74   33   71 1
    75   34   35 1
    76   34   72 1
    77   34   73 1
    78   35   74 1
    79   35   75 1
@<TRIPOS>MOLECULE
ZINC63280093
   59    62     0     0     0
SMALL
USER_CHARGES

@<TRIPOS>ATOM
      1 C1          0.3571    1.9550   -0.2901 C.3       1 <0>        -0.1672
      2 C2          0.0983    0.4534   -0.1518 C.3       1 <0>         0.1534
      3 H1         -0.9757    0.2677   -0.1582 H         1 <0>         0.0968
      4 C3          0.6946   -0.0477    1.1651 C.3       1 <0>        -0.1038
      5 C4          0.3344   -1.4980    1.3600 C.2       1 <0>         0.0758
      6 C5          1.0868   -2.5736    1.0340 C.ar      1 <0>        -0.1725
      7 C6          2.4144   -2.7101    0.4229 C.ar      1 <0>        -0.0135
      8 C7          2.9166   -3.9485    0.2150 C.ar      1 <0>        -0.1494
      9 C8          2.2027   -5.1021    0.5673 C.ar      1 <0>         0.0526
     10 C9          0.9778   -5.0574    1.1327 C.ar      1 <0>        -0.2086
     11 C10         0.3535   -3.8072    1.3973 C.ar      1 <0>         0.3274
     12 N1         -0.8071   -3.5059    1.9273 N.pl3     1 <0>        -0.5872
     13 C11        -0.9388   -2.0452    1.9656 C.3       1 <0>         0.0599
     14 N2          0.7231   -0.2549   -1.2716 N.am      1 <0>        -0.7407
     15 C12         0.0650   -0.3804   -2.4411 C.2       1 <0>         0.5721
     16 O1         -1.0491    0.0951   -2.5669 O.2       1 <0>        -0.5623
     17 C13         0.6682   -1.0643   -3.5222 C.2       1 <0>        -0.3666
     18 C14        -0.0332   -1.2924   -4.6516 C.2       1 <0>         0.2650
     19 C15         0.6056   -1.8896   -5.9001 C.3       1 <0>        -0.0553
     20 S1         -0.4830   -1.1469   -7.1920 S.3       1 <0>        -0.2427
     21 C16        -1.9210   -0.7942   -6.0952 C.3       1 <0>         0.2353
     22 H2         -2.7351   -1.4935   -6.2857 H         1 <0>         0.1198
     23 N3         -1.3492   -1.0129   -4.7513 N.pl3     1 <0>        -0.6947
     24 C17        -2.3882    0.6286   -6.2637 C.ar      1 <0>        -0.1058
     25 C18        -1.8285    1.6337   -5.4970 C.ar      1 <0>        -0.0706
     26 C19        -2.2537    2.9405   -5.6478 C.ar      1 <0>        -0.1751
     27 C20        -3.2427    3.2453   -6.5692 C.ar      1 <0>         0.1172
     28 C21        -3.8058    2.2336   -7.3412 C.ar      1 <0>         0.1013
     29 C22        -3.3716    0.9266   -7.1884 C.ar      1 <0>        -0.1502
     30 O2         -4.7767    2.5278   -8.2468 O.3       1 <0>        -0.3028
     31 C23        -5.3089    1.4390   -9.0041 C.3       1 <0>         0.0245
     32 O3         -3.6624    4.5302   -6.7185 O.3       1 <0>        -0.3026
     33 C24        -3.0401    5.5161   -5.8922 C.3       1 <0>         0.0250
     34 H3          1.4311    2.1408   -0.2836 H         1 <0>         0.0648
     35 H4         -0.0678    2.3120   -1.2283 H         1 <0>         0.0747
     36 H5         -0.1078    2.4821    0.5431 H         1 <0>         0.0722
     37 H6          1.7792    0.0565    1.1358 H         1 <0>         0.1146
     38 H7          0.2954    0.5401    1.9917 H         1 <0>         0.1275
     39 H8          2.9815   -1.8346    0.1431 H         1 <0>         0.1574
     40 H9          3.8932   -4.0513   -0.2345 H         1 <0>         0.1578
     41 H10         2.6508   -6.0664    0.3782 H         1 <0>         0.1601
     42 H11         0.4689   -5.9759    1.3853 H         1 <0>         0.1592
     43 H12        -1.0429   -1.7021    2.9949 H         1 <0>         0.1745
     44 H13        -1.8002   -1.7321    1.3756 H         1 <0>         0.1720
     45 H14         1.6105   -0.6337   -1.1714 H         1 <0>         0.3960
     46 H15         1.6384   -1.5602   -6.0138 H         1 <0>         0.1351
     47 H16         1.6904   -1.4038   -3.4435 H         1 <0>         0.1351
     48 H17         0.5362   -2.9774   -5.8999 H         1 <0>         0.1244
     49 H18        -1.9051   -0.9548   -3.9585 H         1 <0>         0.4258
     50 H19        -1.0575    1.3975   -4.7785 H         1 <0>         0.1317
     51 H20        -1.8153    3.7237   -5.0472 H         1 <0>         0.1372
     52 H21        -3.8043    0.1402   -7.7890 H         1 <0>         0.1380
     53 H22        -6.0726    1.8106   -9.6872 H         1 <0>         0.1047
     54 H23        -4.5087    0.9681   -9.5751 H         1 <0>         0.0565
     55 H24        -5.7512    0.7078   -8.3275 H         1 <0>         0.0549
     56 H25        -3.2111    5.2720   -4.8438 H         1 <0>         0.0554
     57 H26        -1.9685    5.5330   -6.0912 H         1 <0>         0.0567
     58 H27        -3.4658    6.4952   -6.1115 H         1 <0>         0.1045
     59 H28        -1.4668   -4.1423    2.2446 H         1 <0>         0.4550
@<TRIPOS>BOND
     1    1    2 1
     2    1   34 1
     3    1   35 1
     4    1   36 1
     5    2    3 1
     6    2    4 1
     7    2   14 1
     8    4    5 1
     9    4   37 1
    10    4   38 1
    11    5   13 1
    12    5    6 2
    13    6   11 ar
    14    6    7 ar
    15    7    8 ar
    16    7   39 1
    17    8    9 ar
    18    8   40 1
    19    9   10 ar
    20    9   41 1
    21   10   11 ar
    22   10   42 1
    23   11   12 2
    24   12   13 1
    25   12   59 1
    26   13   43 1
    27   13   44 1
    28   14   45 1
    29   14   15 am
    30   15   16 2
    31   15   17 1
    32   17   47 1
    33   17   18 2
    34   18   19 1
    35   18   23 1
    36   19   20 1
    37   19   48 1
    38   19   46 1
    39   20   21 1
    40   21   22 1
    41   21   24 1
    42   21   23 1
    43   23   49 1
    44   24   29 ar
    45   24   25 ar
    46   25   26 ar
    47   25   50 1
    48   26   27 ar
    49   26   51 1
    50   27   28 ar
    51   27   32 1
    52   28   29 ar
    53   28   30 1
    54   29   52 1
    55   30   31 1
    56   31   53 1
    57   31   54 1
    58   31   55 1
    59   32   33 1
    60   33   56 1
    61   33   57 1
    62   33   58 1
@<TRIPOS>MOLECULE
ZINC65074819
   61    64     0     0     0
SMALL
USER_CHARGES

@<TRIPOS>ATOM
      1 C1         -0.0184    1.5028    0.0103 C.3       1 <0>        -0.1301
      2 C2          0.0021   -0.0041    0.0020 C.ar      1 <0>        -0.0158
      3 C3          0.0057   -0.6888   -1.1991 C.ar      1 <0>        -0.1456
      4 C4          0.0245   -2.0707   -1.2067 C.ar      1 <0>        -0.0137
      5 C5          0.0400   -2.7685   -0.0132 C.ar      1 <0>        -0.6917
      6 C6          0.0373   -2.0840    1.1875 C.ar      1 <0>         0.0231
      7 C7          0.0229   -0.7015    1.1951 C.ar      1 <0>        -0.1437
      8 C8          0.0538   -2.8445    2.4885 C.3       1 <0>        -0.1807
      9 S1          0.0628   -4.5303   -0.0229 S.o2      1 <0>         2.6933
     10 O1         -0.9525   -4.9545    0.8764 O.2       1 <0>        -0.9445
     11 O2          0.0875   -4.9286   -1.3867 O.2       1 <0>        -0.9498
     12 N1          1.5064   -5.0050    0.6351 N.pl3     1 <0>        -1.0037
     13 C9          2.6886   -5.2006   -0.2150 C.3       1 <0>         0.1187
     14 C10         3.2508   -6.6029    0.0373 C.3       1 <0>        -0.1644
     15 C11         3.5195   -6.7789    1.5345 C.3       1 <0>         0.1266
     16 C12         2.2046   -6.6400    2.3067 C.3       1 <0>        -0.1227
     17 C13         1.6314   -5.2328    2.0813 C.3       1 <0>         0.1068
     18 C14         4.1069   -8.1394    1.7825 C.cat     1 <0>         0.5346
     19 N2          5.3478   -8.3418    2.0185 N.pl3     1 <0>        -0.5972
     20 C15         6.3446   -7.2783    2.0864 C.3       1 <0>         0.0865
     21 C16         5.7991   -6.0048    1.4366 C.3       1 <0>         0.0164
     22 N3          4.4575   -5.7395    1.9834 N.3       1 <0>        -0.6646
     23 N4          3.2678   -9.2221    1.7549 N.pl3     1 <0>        -0.6695
     24 C17         3.7990  -10.5667    1.9915 C.3       1 <0>         0.1244
     25 C18         2.6789  -11.5713    1.9070 C.ar      1 <0>        -0.1093
     26 C19         1.9594  -11.9011    3.0408 C.ar      1 <0>        -0.1033
     27 C20         0.9318  -12.8224    2.9648 C.ar      1 <0>        -0.0846
     28 C21         0.6225  -13.4154    1.7552 C.ar      1 <0>        -0.1260
     29 C22         1.3422  -13.0860    0.6194 C.ar      1 <0>         0.1066
     30 C23         2.3675  -12.1583    0.6955 C.ar      1 <0>        -0.1310
     31 F1          1.0411  -13.6653   -0.5634 F         1 <0>        -0.1280
     32 H1          1.0042    1.8801    0.0026 H         1 <0>         0.0825
     33 H2         -0.5455    1.8639   -0.8728 H         1 <0>         0.0766
     34 H3         -0.5286    1.8543    0.9071 H         1 <0>         0.0758
     35 H4         -0.0064   -0.1437   -2.1314 H         1 <0>         0.1359
     36 H5          0.0266   -2.6056   -2.1449 H         1 <0>         0.1435
     37 H6          0.0246   -0.1666    2.1333 H         1 <0>         0.1343
     38 H7          1.0853   -3.0146    2.7969 H         1 <0>         0.0869
     39 H8         -0.4637   -2.2663    3.2539 H         1 <0>         0.0906
     40 H9         -0.4484   -3.8028    2.3555 H         1 <0>         0.1016
     41 H10         2.4052   -5.1037   -1.2631 H         1 <0>         0.1172
     42 H11         3.4438   -4.4543    0.0319 H         1 <0>         0.0781
     43 H12         2.5283   -7.3493   -0.2928 H         1 <0>         0.0965
     44 H13         4.1814   -6.7269   -0.5164 H         1 <0>         0.0960
     45 H14         1.4938   -7.3862    1.9519 H         1 <0>         0.0876
     46 H15         2.3898   -6.7900    3.3703 H         1 <0>         0.1064
     47 H16         2.3019   -4.4889    2.5117 H         1 <0>         0.0905
     48 H17         0.6499   -5.1572    2.5492 H         1 <0>         0.1200
     49 H18         6.5873   -7.0764    3.1297 H         1 <0>         0.1211
     50 H19         7.2465   -7.5941    1.5619 H         1 <0>         0.1240
     51 H20         6.4588   -5.1670    1.6621 H         1 <0>         0.1276
     52 H21         5.7339   -6.1433    0.3574 H         1 <0>         0.0668
     53 H22         4.1340   -4.8214    1.7181 H         1 <0>         0.3793
     54 H23         2.3220   -9.0983    1.5786 H         1 <0>         0.4392
     55 H24         4.5518  -10.7978    1.2379 H         1 <0>         0.1037
     56 H25         4.2515  -10.6095    2.9822 H         1 <0>         0.1072
     57 H26         2.2008  -11.4388    3.9865 H         1 <0>         0.1360
     58 H27         0.3705  -13.0793    3.8511 H         1 <0>         0.1452
     59 H28        -0.1800  -14.1358    1.6963 H         1 <0>         0.1472
     60 H29         2.9267  -11.8973   -0.1908 H         1 <0>         0.1402
     61 H30         5.6430   -9.2547    2.1607 H         1 <0>         0.4254
@<TRIPOS>BOND
     1    1    2 1
     2    1   32 1
     3    1   33 1
     4    1   34 1
     5    2    7 ar
     6    2    3 ar
     7    3    4 ar
     8    3   35 1
     9    4    5 ar
    10    4   36 1
    11    5    6 ar
    12    5    9 1
    13    6    7 ar
    14    6    8 1
    15    7   37 1
    16    8   38 1
    17    8   39 1
    18    8   40 1
    19    9   10 2
    20    9   11 2
    21    9   12 1
    22   12   17 1
    23   12   13 1
    24   13   14 1
    25   13   41 1
    26   13   42 1
    27   14   15 1
    28   14   43 1
    29   14   44 1
    30   15   22 1
    31   15   16 1
    32   15   18 1
    33   16   17 1
    34   16   45 1
    35   16   46 1
    36   17   47 1
    37   17   48 1
    38   18   19 2
    39   18   23 1
    40   19   20 1
    41   19   61 1
    42   20   21 1
    43   20   49 1
    44   20   50 1
    45   21   22 1
    46   21   51 1
    47   21   52 1
    48   22   53 1
    49   23   24 1
    50   23   54 1
    51   24   25 1
    52   24   55 1
    53   24   56 1
    54   25   30 ar
    55   25   26 ar
    56   26   27 ar
    57   26   57 1
    58   27   28 ar
    59   27   58 1
    60   28   29 ar
    61   28   59 1
    62   29   30 ar
    63   29   31 1
    64   30   60 1
@<TRIPOS>MOLECULE
ZINC09628040
   48    51     0     0     0
SMALL
USER_CHARGES
4-methoxy-N-[4-[(6-methylbenzothiazol-2-yl)carbamoylmethyl]thiazol-2-yl]-benzamide
@<TRIPOS>ATOM
      1 C1         -1.2880   -0.7829    0.0106 C.3       1 <0>        -0.1130
      2 C2          0.0021   -0.0041    0.0020 C.ar      1 <0>        -0.0683
      3 C3         -0.0167    1.3833    0.0096 C.ar      1 <0>        -0.1060
      4 C4          1.1417    2.1152    0.0025 C.ar      1 <0>        -0.0617
      5 C5          2.4018    1.4735   -0.0129 C.ar      1 <0>         0.0975
      6 C6          2.3822    0.0601   -0.0203 C.ar      1 <0>        -0.1434
      7 C7          1.2167   -0.6648   -0.0131 C.ar      1 <0>        -0.0640
      8 S1          4.1127   -0.3419   -0.0390 S.3       1 <0>        -0.0035
      9 C8          4.7326    1.3345   -0.0359 C.2       1 <0>         0.3761
     10 N1          3.6269    2.0417   -0.0215 N.2       1 <0>        -0.5063
     11 N2          6.0460    1.7753   -0.0460 N.am      1 <0>        -0.6217
     12 C9          6.3135    3.0962   -0.0420 C.2       1 <0>         0.5091
     13 O1          5.4046    3.8989   -0.0295 O.2       1 <0>        -0.4419
     14 C10         7.7421    3.5757   -0.0530 C.3       1 <0>        -0.0579
     15 C11         7.7663    5.0825   -0.0458 C.2       1 <0>         0.0923
     16 C12         8.4502    5.7604    0.9082 C.2       1 <0>        -0.2580
     17 S2          8.1254    7.4467    0.4144 S.3       1 <0>         0.1694
     18 C13         7.1337    7.0909   -0.9660 C.2       1 <0>         0.2884
     19 N3          7.1183    5.7720   -0.9642 N.2       1 <0>        -0.5241
     20 N4          6.5157    7.9697   -1.8464 N.am      1 <0>        -0.6080
     21 C14         6.6528    9.2999   -1.6781 C.2       1 <0>         0.5687
     22 O2          7.3176    9.7306   -0.7555 O.2       1 <0>        -0.4984
     23 C15         5.9963   10.2334   -2.6133 C.ar      1 <0>        -0.1794
     24 C16         5.2366    9.7403   -3.6777 C.ar      1 <0>        -0.0377
     25 C17         4.6208   10.6149   -4.5448 C.ar      1 <0>        -0.2162
     26 C18         4.7639   11.9864   -4.3697 C.ar      1 <0>         0.1658
     27 C19         5.5230   12.4809   -3.3155 C.ar      1 <0>        -0.1595
     28 C20         6.1373   11.6131   -2.4405 C.ar      1 <0>        -0.0082
     29 O3          4.1604   12.8451   -5.2301 O.3       1 <0>        -0.3095
     30 C21         3.3954   12.2696   -6.2911 C.3       1 <0>         0.0223
     31 H1         -1.6093   -0.9651   -1.0149 H         1 <0>         0.0758
     32 H2         -1.1341   -1.7353    0.5179 H         1 <0>         0.0704
     33 H3         -2.0539   -0.2115    0.5351 H         1 <0>         0.0722
     34 H4         -0.9661    1.8981    0.0169 H         1 <0>         0.1345
     35 H5          1.0918    3.1941    0.0088 H         1 <0>         0.1335
     36 H6          1.2480   -1.7443   -0.0188 H         1 <0>         0.1336
     37 H7          6.7730    1.1332   -0.0560 H         1 <0>         0.4287
     38 H8          8.2584    3.1998    0.8303 H         1 <0>         0.1196
     39 H9          8.2417    3.2086   -0.9496 H         1 <0>         0.1173
     40 H10         9.0320    5.3850    1.7370 H         1 <0>         0.1983
     41 H11         5.9855    7.6261   -2.5823 H         1 <0>         0.4240
     42 H12         5.1292    8.6748   -3.8174 H         1 <0>         0.1306
     43 H13         4.0296   10.2347   -5.3647 H         1 <0>         0.1394
     44 H14         5.6314   13.5472   -3.1827 H         1 <0>         0.1440
     45 H15         6.7269   11.9981   -1.6217 H         1 <0>         0.1487
     46 H16         4.0415   11.6437   -6.9068 H         1 <0>         0.0604
     47 H17         2.5930   11.6622   -5.8725 H         1 <0>         0.0606
     48 H18         2.9683   13.0639   -6.9034 H         1 <0>         0.1058
@<TRIPOS>BOND
     1    1    2 1
     2    1   31 1
     3    1   32 1
     4    1   33 1
     5    2    7 ar
     6    2    3 ar
     7    3    4 ar
     8    3   34 1
     9    4    5 ar
    10    4   35 1
    11    5   10 1
    12    5    6 ar
    13    6    7 ar
    14    6    8 1
    15    7   36 1
    16    8    9 1
    17    9   10 2
    18    9   11 1
    19   11   12 am
    20   11   37 1
    21   12   13 2
    22   12   14 1
    23   14   15 1
    24   14   38 1
    25   14   39 1
    26   15   19 1
    27   15   16 2
    28   16   17 1
    29   16   40 1
    30   17   18 1
    31   18   19 2
    32   18   20 1
    33   20   21 am
    34   20   41 1
    35   21   22 2
    36   21   23 1
    37   23   28 ar
    38   23   24 ar
    39   24   25 ar
    40   24   42 1
    41   25   26 ar
    42   25   43 1
    43   26   27 ar
    44   26   29 1
    45   27   28 ar
    46   27   44 1
    47   28   45 1
    48   29   30 1
    49   30   46 1
    50   30   47 1
    51   30   48 1
@<TRIPOS>MOLECULE
ZINC15106677
   51    55     0     0     0
SMALL
USER_CHARGES
(4R)-4-(1,3-benzodioxol-5-yl)-N-(4-methoxyphenyl)-3-methyl-6-oxo-5,7-dihydro-4H-thieno[5,4-b]pyridine-2-carboxamide
@<TRIPOS>ATOM
      1 C1         -3.6054   -2.5422    0.3690 C.3       1 <0>        -0.1256
      2 C2         -2.1826   -3.0377    0.3312 C.2       1 <0>         0.0324
      3 C3         -1.8995   -4.3820    0.4124 C.2       1 <0>        -0.1995
      4 C4         -0.5575   -4.7387    0.3620 C.2       1 <0>         0.0776
      5 S1          0.2855   -3.2501    0.2097 S.3       1 <0>         0.1903
      6 C5         -1.1224   -2.1516    0.2130 C.2       1 <0>        -0.2804
      7 C6         -1.1504   -0.6943    0.1110 C.2       1 <0>         0.6127
      8 O1         -2.2151   -0.1033    0.1246 O.2       1 <0>        -0.5068
      9 N1          0.0021   -0.0041    0.0020 N.am      1 <0>        -0.6677
     10 C7         -0.0177    1.3961    0.0020 C.ar      1 <0>         0.1055
     11 C8         -1.0687    2.0761   -0.5991 C.ar      1 <0>        -0.0763
     12 C9         -1.0894    3.4568   -0.5953 C.ar      1 <0>        -0.1900
     13 C10        -0.0560    4.1647    0.0007 C.ar      1 <0>         0.1164
     14 C11         0.9968    3.4862    0.5971 C.ar      1 <0>        -0.1332
     15 C12         1.0167    2.1055    0.5980 C.ar      1 <0>        -0.1014
     16 O2         -0.0747    5.5243   -0.0002 O.3       1 <0>        -0.3175
     17 C13        -1.1890    6.1574   -0.6321 C.3       1 <0>         0.0262
     18 N2         -0.0860   -6.0315    0.4131 N.am      1 <0>        -0.6201
     19 C14        -0.9890   -7.0331    0.2961 C.2       1 <0>         0.5308
     20 O3         -0.6442   -8.1755    0.5134 O.2       1 <0>        -0.4976
     21 C15        -2.4114   -6.7530   -0.0990 C.3       1 <0>        -0.1347
     22 C16        -2.9451   -5.4830    0.5630 C.3       1 <0>         0.0318
     23 H1         -3.1293   -5.6708    1.6207 H         1 <0>         0.1021
     24 C17        -4.2254   -5.0608   -0.1106 C.ar      1 <0>        -0.0626
     25 C18        -4.2309   -4.7731   -1.4629 C.ar      1 <0>        -0.0982
     26 C19        -5.4041   -4.3916   -2.0866 C.ar      1 <0>        -0.0954
     27 C20        -6.5753   -4.2839   -1.3544 C.ar      1 <0>         0.0360
     28 C21        -6.5685   -4.5681    0.0090 C.ar      1 <0>         0.0377
     29 C22        -5.3904   -4.9565    0.6260 C.ar      1 <0>        -0.0937
     30 O4         -7.8304   -4.3898    0.4981 O.3       1 <0>        -0.3069
     31 C23        -8.5183   -3.6015   -0.4911 C.3       1 <0>         0.2127
     32 O5         -7.8414   -3.9276   -1.7194 O.3       1 <0>        -0.3077
     33 H2         -4.0010   -2.4957   -0.6455 H         1 <0>         0.0810
     34 H3         -4.2119   -3.2245    0.9646 H         1 <0>         0.0790
     35 H4         -3.6322   -1.5482    0.8154 H         1 <0>         0.0882
     36 H5          0.8452   -0.4772   -0.0764 H         1 <0>         0.4074
     37 H6         -1.8713    1.5251   -1.0667 H         1 <0>         0.1433
     38 H7         -1.9085    3.9857   -1.0598 H         1 <0>         0.1322
     39 H8          1.8012    4.0380    1.0606 H         1 <0>         0.1362
     40 H9          1.8368    1.5774    1.0617 H         1 <0>         0.1336
     41 H10        -1.2272    5.8633   -1.6810 H         1 <0>         0.0561
     42 H11        -2.1100    5.8521   -0.1355 H         1 <0>         0.0564
     43 H12        -1.0799    7.2397   -0.5620 H         1 <0>         0.1011
     44 H13         0.8590   -6.2176    0.5285 H         1 <0>         0.4236
     45 H14        -2.4630   -6.6380   -1.1817 H         1 <0>         0.1127
     46 H15        -3.0351   -7.5960    0.1983 H         1 <0>         0.1190
     47 H16        -3.3177   -4.8511   -2.0341 H         1 <0>         0.1364
     48 H17        -5.4065   -4.1718   -3.1440 H         1 <0>         0.1377
     49 H18        -5.3822   -5.1776    1.6831 H         1 <0>         0.1389
     50 H19        -8.4198   -2.5387   -0.2701 H         1 <0>         0.0869
     51 H20        -9.5695   -3.8843   -0.5463 H         1 <0>         0.1334
@<TRIPOS>BOND
     1    1    2 1
     2    1   33 1
     3    1   34 1
     4    1   35 1
     5    2    6 2
     6    2    3 1
     7    3   22 1
     8    3    4 2
     9    4    5 1
    10    4   18 1
    11    5    6 1
    12    6    7 1
    13    7    8 2
    14    7    9 am
    15    9   10 1
    16    9   36 1
    17   10   15 ar
    18   10   11 ar
    19   11   12 ar
    20   11   37 1
    21   12   13 ar
    22   12   38 1
    23   13   14 ar
    24   13   16 1
    25   14   15 ar
    26   14   39 1
    27   15   40 1
    28   16   17 1
    29   17   41 1
    30   17   42 1
    31   17   43 1
    32   18   19 am
    33   18   44 1
    34   19   20 2
    35   19   21 1
    36   21   22 1
    37   21   45 1
    38   21   46 1
    39   22   23 1
    40   22   24 1
    41   24   29 ar
    42   24   25 ar
    43   25   26 ar
    44   25   47 1
    45   26   27 ar
    46   26   48 1
    47   27   32 1
    48   27   28 ar
    49   28   29 ar
    50   28   30 1
    51   29   49 1
    52   30   31 1
    53   31   32 1
    54   31   50 1
    55   31   51 1
@<TRIPOS>MOLECULE
ZINC27771844
   47    49     0     0     0
SMALL
USER_CHARGES
N-[4-[(E)-3-[N'-(4-chlorobenzoyl)hydrazino]-3-oxo-prop-1-enyl]thiazol-2-yl]-N-phenyl-acetamide
@<TRIPOS>ATOM
      1 C1         -2.1979   -2.6380    1.0732 C.3       1 <0>        -0.1718
      2 C2         -0.9558   -2.0116    0.4938 C.2       1 <0>         0.5155
      3 O1          0.0660   -2.6591    0.4073 O.2       1 <0>        -0.4686
      4 N1         -0.9805   -0.7319    0.0717 N.am      1 <0>        -0.4688
      5 C3         -2.1280    0.0476    0.2658 C.ar      1 <0>         0.0976
      6 C4         -2.2387    0.8549    1.3902 C.ar      1 <0>        -0.0991
      7 C5         -3.3697    1.6253    1.5768 C.ar      1 <0>        -0.1069
      8 C6         -4.3952    1.5863    0.6500 C.ar      1 <0>        -0.0973
      9 C7         -4.2901    0.7797   -0.4683 C.ar      1 <0>        -0.1073
     10 C8         -3.1598    0.0103   -0.6628 C.ar      1 <0>        -0.1001
     11 C9          0.1327   -0.1857   -0.5563 C.2       1 <0>         0.3404
     12 N2          1.3222   -0.7173   -0.7494 N.2       1 <0>        -0.4952
     13 C10         2.2869   -0.0453   -1.3795 C.2       1 <0>         0.0867
     14 C11         2.0242    1.2276   -1.8328 C.2       1 <0>        -0.1899
     15 S1          0.3243    1.4213   -1.3140 S.3       1 <0>         0.0386
     16 C12         3.6057   -0.6523   -1.5854 C.2       1 <0>         0.0101
     17 C13         3.8519   -1.9044   -1.1353 C.2       1 <0>        -0.1884
     18 C14         5.1258   -2.4908   -1.3342 C.2       1 <0>         0.5571
     19 O2          5.9994   -1.8682   -1.9103 O.2       1 <0>        -0.5572
     20 N3          5.3710   -3.7379   -0.8858 N.am      1 <0>        -0.5270
     21 N4          6.6311   -4.3179   -1.0826 N.am      1 <0>        -0.5269
     22 C15         6.8763   -5.5650   -0.6342 C.2       1 <0>         0.5613
     23 O3          6.0042   -6.1866   -0.0590 O.2       1 <0>        -0.5378
     24 C16         8.2055   -6.1768   -0.8417 C.ar      1 <0>        -0.1226
     25 C17         9.2073   -5.4676   -1.5070 C.ar      1 <0>        -0.0732
     26 C18        10.4473   -6.0415   -1.6927 C.ar      1 <0>        -0.1151
     27 C19        10.6962   -7.3236   -1.2311 C.ar      1 <0>        -0.0094
     28 C20         9.7045   -8.0343   -0.5754 C.ar      1 <0>        -0.1157
     29 C21         8.4625   -7.4685   -0.3784 C.ar      1 <0>        -0.0427
     30 Cl1        12.2575   -8.0423   -1.4750 Cl        1 <0>        -0.0569
     31 H1         -3.0156   -1.9022    1.0694 H         1 <0>         0.0862
     32 H2         -1.9987   -2.9595    2.1061 H         1 <0>         0.1065
     33 H3         -2.4860   -3.5095    0.4670 H         1 <0>         0.1070
     34 H4         -1.4397    0.8829    2.1163 H         1 <0>         0.1309
     35 H5         -3.4549    2.2560    2.4494 H         1 <0>         0.1355
     36 H6         -5.2803    2.1868    0.8001 H         1 <0>         0.1334
     37 H7         -5.0929    0.7511   -1.1902 H         1 <0>         0.1358
     38 H8         -3.0786   -0.6200   -1.5360 H         1 <0>         0.1320
     39 H9          2.6673    1.9186   -2.3575 H         1 <0>         0.2080
     40 H10         4.3949   -0.0898   -2.1058 H         1 <0>         0.1537
     41 H11         3.0627   -2.4669   -0.6149 H         1 <0>         0.1498
     42 H12         4.5819   -4.3004   -0.3653 H         1 <0>         0.4626
     43 H13         7.4202   -3.7554   -1.6031 H         1 <0>         0.4554
     44 H14         9.0128   -4.4697   -1.8716 H         1 <0>         0.1366
     45 H15        11.2246   -5.4919   -2.2026 H         1 <0>         0.1438
     46 H16         9.9045   -9.0334   -0.2174 H         1 <0>         0.1445
     47 H17         7.6902   -8.0233    0.1337 H         1 <0>         0.1489
@<TRIPOS>BOND
     1    1    2 1
     2    1   31 1
     3    1   32 1
     4    1   33 1
     5    2    3 2
     6    2    4 am
     7    4    5 1
     8    4   11 1
     9    5   10 ar
    10    5    6 ar
    11    6    7 ar
    12    6   34 1
    13    7    8 ar
    14    7   35 1
    15    8    9 ar
    16    8   36 1
    17    9   10 ar
    18    9   37 1
    19   10   38 1
    20   11   15 1
    21   11   12 2
    22   12   13 1
    23   13   14 2
    24   13   16 1
    25   14   15 1
    26   14   39 1
    27   16   17 2
    28   16   40 1
    29   17   18 1
    30   17   41 1
    31   18   19 2
    32   18   20 am
    33   20   21 1
    34   20   42 1
    35   21   22 am
    36   21   43 1
    37   22   23 2
    38   22   24 1
    39   24   29 ar
    40   24   25 ar
    41   25   26 ar
    42   25   44 1
    43   26   27 ar
    44   26   45 1
    45   27   28 ar
    46   27   30 1
    47   28   29 ar
    48   28   46 1
    49   29   47 1
@<TRIPOS>MOLECULE
ZINC06116382
   45    48     0     0     0
SMALL
USER_CHARGES

@<TRIPOS>ATOM
      1 C1         -0.0225    1.8097    0.0120 C.3       1 <0>        -0.6408
      2 S1          0.0021   -0.0041    0.0020 S.o2      1 <0>         2.5761
      3 O1          0.8352   -0.4880    1.0465 O.2       1 <0>        -0.9980
      4 O2         -1.3147   -0.5105   -0.1678 O.2       1 <0>        -0.9994
      5 N1          0.7947   -0.4113   -1.3938 N.2       1 <0>        -1.0647
      6 C2          0.9918   -1.7544   -1.7179 C.2       1 <0>         0.5668
      7 N2          1.6209   -2.2069   -2.8125 N.pl3     1 <0>        -0.5546
      8 C3          1.6261   -3.5133   -2.8027 C.cat     1 <0>         0.5785
      9 N3          0.9912   -3.9296   -1.6810 N.pl3     1 <0>        -0.3476
     10 N4          0.5958   -2.7795   -0.9968 N.2       1 <0>        -0.3594
     11 C4          0.7994   -5.3328   -1.3154 C.3       1 <0>         0.2123
     12 H1         -0.2172   -5.6389   -1.5625 H         1 <0>         0.1208
     13 C5          1.7996   -6.1901   -2.1008 C.3       1 <0>        -0.1494
     14 C6          1.7500   -5.8131   -3.5858 C.3       1 <0>         0.1972
     15 H2          0.7348   -5.9396   -3.9618 H         1 <0>         0.1065
     16 N5          2.1585   -4.4021   -3.7272 N.pl3     1 <0>        -0.6944
     17 C7          2.6912   -6.6964   -4.3637 C.ar      1 <0>        -0.1045
     18 C8          4.0465   -6.4241   -4.3715 C.ar      1 <0>        -0.0931
     19 C9          4.9102   -7.2338   -5.0848 C.ar      1 <0>        -0.1057
     20 C10         4.4181   -8.3171   -5.7909 C.ar      1 <0>        -0.0234
     21 C11         3.0616   -8.5890   -5.7826 C.ar      1 <0>        -0.1050
     22 C12         2.1996   -7.7819   -5.0644 C.ar      1 <0>        -0.0830
     23 Cl1         5.5023   -9.3342   -6.6874 Cl        1 <0>        -0.0571
     24 C13         1.0335   -5.5059    0.1632 C.ar      1 <0>        -0.1017
     25 C14         2.2599   -5.1793    0.7114 C.ar      1 <0>        -0.0725
     26 C15         2.4752   -5.3379    2.0674 C.ar      1 <0>        -0.1070
     27 C16         1.4633   -5.8236    2.8762 C.ar      1 <0>        -0.0168
     28 C17         0.2362   -6.1504    2.3269 C.ar      1 <0>        -0.1090
     29 C18         0.0202   -5.9860    0.9717 C.ar      1 <0>        -0.0743
     30 Cl2         1.7332   -6.0236    4.5794 Cl        1 <0>        -0.0612
     31 H3          1.0001    2.1870    0.0043 H         1 <0>         0.1224
     32 H4         -0.5497    2.1708   -0.8711 H         1 <0>         0.1224
     33 H5         -0.5327    2.1613    0.9088 H         1 <0>         0.1169
     34 H6          2.8049   -6.0180   -1.7164 H         1 <0>         0.0986
     35 H7          1.5435   -7.2433   -1.9854 H         1 <0>         0.1273
     36 H8          2.7646   -4.1118   -4.4267 H         1 <0>         0.4332
     37 H9          4.4305   -5.5783   -3.8206 H         1 <0>         0.1341
     38 H10         5.9690   -7.0208   -5.0911 H         1 <0>         0.1394
     39 H11         2.6769   -9.4343   -6.3339 H         1 <0>         0.1412
     40 H12         1.1413   -7.9969   -5.0540 H         1 <0>         0.1405
     41 H13         3.0499   -4.8005    0.0799 H         1 <0>         0.1245
     42 H14         3.4334   -5.0830    2.4956 H         1 <0>         0.1374
     43 H15        -0.5541   -6.5299    2.9577 H         1 <0>         0.1402
     44 H16        -0.9392   -6.2365    0.5436 H         1 <0>         0.1380
     45 H17         2.0113   -1.6504   -3.5045 H         1 <0>         0.4484
@<TRIPOS>BOND
     1    1    2 1
     2    1   31 1
     3    1   32 1
     4    1   33 1
     5    2    3 2
     6    2    4 2
     7    2    5 1
     8    5    6 1
     9    6   10 2
    10    6    7 1
    11    7    8 2
    12    7   45 1
    13    8   16 1
    14    8    9 1
    15    9   10 1
    16    9   11 1
    17   11   12 1
    18   11   13 1
    19   11   24 1
    20   13   14 1
    21   13   34 1
    22   13   35 1
    23   14   15 1
    24   14   16 1
    25   14   17 1
    26   16   36 1
    27   17   22 ar
    28   17   18 ar
    29   18   19 ar
    30   18   37 1
    31   19   20 ar
    32   19   38 1
    33   20   21 ar
    34   20   23 1
    35   21   22 ar
    36   21   39 1
    37   22   40 1
    38   24   29 ar
    39   24   25 ar
    40   25   26 ar
    41   25   41 1
    42   26   27 ar
    43   26   42 1
    44   27   28 ar
    45   27   30 1
    46   28   29 ar
    47   28   43 1
    48   29   44 1
@<TRIPOS>MOLECULE
ZINC02595210
   57    59     0     0     0
SMALL
USER_CHARGES

@<TRIPOS>ATOM
      1 C1          0.1524    1.3181   -0.0539 C.3       1 <0>        -0.1810
      2 C2          0.0332   -0.2047    0.0343 C.3       1 <0>         0.0722
      3 C3          0.6961   -0.6944    1.3233 C.3       1 <0>        -0.1504
      4 O1         -1.3470   -0.5751    0.0380 O.3       1 <0>        -0.3042
      5 C4         -1.9581   -0.6871   -1.1686 C.ar      1 <0>         0.1694
      6 C5         -1.2182   -0.5426   -2.3363 C.ar      1 <0>        -0.2207
      7 C6         -1.8346   -0.6555   -3.5625 C.ar      1 <0>        -0.0070
      8 C7         -3.2056   -0.9162   -3.6318 C.ar      1 <0>        -0.1786
      9 C8         -3.9458   -1.0612   -2.4555 C.ar      1 <0>        -0.0423
     10 C9         -3.3211   -0.9516   -1.2333 C.ar      1 <0>        -0.1607
     11 C10        -3.8704   -1.0375   -4.9441 C.2       1 <0>         0.5567
     12 O2         -3.2248   -0.9106   -5.9666 O.2       1 <0>        -0.4720
     13 N1         -5.1929   -1.2889   -5.0089 N.am      1 <0>        -0.7224
     14 C11        -5.8332   -1.5124   -6.3074 C.3       1 <0>         0.3165
     15 C12        -5.1198   -2.6096   -7.0721 C.2       1 <0>         0.5214
     16 O3         -3.9658   -2.6120   -7.4436 O.2       1 <0>        -0.3878
     17 N2         -6.0350   -3.5823   -7.2524 N.am      1 <0>        -0.5704
     18 C13        -7.2152   -3.2555   -6.7135 C.2       1 <0>         0.7150
     19 O4         -8.1957   -3.9728   -6.7486 O.2       1 <0>        -0.5048
     20 N3         -7.1954   -2.0441   -6.1289 N.am      1 <0>        -0.7170
     21 C14        -5.7705   -4.8417   -7.9527 C.3       1 <0>         0.1595
     22 C15        -6.6688   -4.9154   -9.2042 C.3       1 <0>        -0.1274
     23 C16        -6.0659   -5.9015  -10.1678 C.3       1 <0>        -0.1177
     24 C17        -6.6573   -7.3155  -10.0113 C.3       1 <0>        -0.1181
     25 C18        -6.8457   -7.7245   -8.5379 C.3       1 <0>        -0.1244
     26 C19        -5.6836   -7.3161   -7.6737 C.3       1 <0>        -0.1068
     27 C20        -6.0034   -5.9483   -7.0365 C.3       1 <0>        -0.1448
     28 C21        -5.8634   -0.2169   -7.1210 C.3       1 <0>         0.4509
     29 F1         -4.5561    0.1591   -7.4478 F         1 <0>        -0.1362
     30 F2         -6.5974   -0.4202   -8.2945 F         1 <0>        -0.1670
     31 F3         -6.4644    0.7949   -6.3645 F         1 <0>        -0.1662
     32 H1          1.2051    1.6006   -0.0567 H         1 <0>         0.0759
     33 H2         -0.3199    1.6669   -0.9723 H         1 <0>         0.0632
     34 H3         -0.3432    1.7716    0.8045 H         1 <0>         0.0695
     35 H4          0.5287   -0.6583   -0.8241 H         1 <0>         0.0786
     36 H5          0.2005   -0.2408    2.1817 H         1 <0>         0.0689
     37 H6          0.6111   -1.7793    1.3862 H         1 <0>         0.0664
     38 H7          1.7488   -0.4119    1.3205 H         1 <0>         0.0802
     39 H8         -0.1586   -0.3412   -2.2819 H         1 <0>         0.1406
     40 H9         -1.2591   -0.5424   -4.4694 H         1 <0>         0.1430
     41 H10        -5.0057   -1.2627   -2.5050 H         1 <0>         0.1311
     42 H11        -3.8917   -1.0676   -0.3237 H         1 <0>         0.1403
     43 H12        -5.7207   -1.3219   -4.1957 H         1 <0>         0.4183
     44 H13        -7.9339   -1.6063   -5.6775 H         1 <0>         0.4502
     45 H14        -4.7271   -4.8576   -8.2674 H         1 <0>         0.1060
     46 H15        -7.6676   -5.2460   -8.9191 H         1 <0>         0.0872
     47 H16        -6.7251   -3.9330   -9.6730 H         1 <0>         0.0695
     48 H17        -6.2453   -5.5548  -11.1855 H         1 <0>         0.0683
     49 H18        -4.9903   -5.9482   -9.9976 H         1 <0>         0.0642
     50 H19        -7.6249   -7.3492  -10.5120 H         1 <0>         0.0617
     51 H20        -5.9900   -8.0308  -10.4922 H         1 <0>         0.0620
     52 H21        -7.7520   -7.2555   -8.1549 H         1 <0>         0.0657
     53 H22        -6.9616   -8.8070   -8.4845 H         1 <0>         0.0624
     54 H23        -5.5313   -8.0584   -6.8902 H         1 <0>         0.0715
     55 H24        -4.7843   -7.2343   -8.2842 H         1 <0>         0.0695
     56 H25        -5.3768   -5.8145   -6.1547 H         1 <0>         0.0644
     57 H26        -7.0491   -5.9380   -6.7291 H         1 <0>         0.0875
@<TRIPOS>BOND
     1    1    2 1
     2    1   32 1
     3    1   33 1
     4    1   34 1
     5    2    3 1
     6    2    4 1
     7    2   35 1
     8    3   36 1
     9    3   37 1
    10    3   38 1
    11    4    5 1
    12    5   10 ar
    13    5    6 ar
    14    6    7 ar
    15    6   39 1
    16    7    8 ar
    17    7   40 1
    18    8    9 ar
    19    8   11 1
    20    9   10 ar
    21    9   41 1
    22   10   42 1
    23   11   12 2
    24   11   13 am
    25   13   14 1
    26   13   43 1
    27   14   20 1
    28   14   15 1
    29   14   28 1
    30   15   16 2
    31   15   17 am
    32   17   18 am
    33   17   21 1
    34   18   19 2
    35   18   20 am
    36   20   44 1
    37   21   27 1
    38   21   22 1
    39   21   45 1
    40   22   23 1
    41   22   46 1
    42   22   47 1
    43   23   24 1
    44   23   48 1
    45   23   49 1
    46   24   25 1
    47   24   50 1
    48   24   51 1
    49   25   26 1
    50   25   52 1
    51   25   53 1
    52   26   27 1
    53   26   54 1
    54   26   55 1
    55   27   56 1
    56   27   57 1
    57   28   29 1
    58   28   30 1
    59   28   31 1
@<TRIPOS>MOLECULE
ZINC09298062
   58    61     0     0     0
SMALL
USER_CHARGES
methyl [2-(4-benzoylbenzoyl)amino-6-methyl-4,5,6,7-tetrahydrobenzothiophen-3-yl]carbonylaminoformate
@<TRIPOS>ATOM
      1 C1         -1.9041    0.9614   -0.3243 C.3       1 <0>        -0.1478
      2 C2         -1.7352   -0.5588   -0.3624 C.3       1 <0>        -0.0877
      3 H1         -2.7046   -1.0301   -0.5245 H         1 <0>         0.0774
      4 C3         -1.1444   -1.0431    0.9649 C.3       1 <0>        -0.1135
      5 C4         -1.2012   -2.5702    1.0332 C.3       1 <0>        -0.0626
      6 C5         -0.5609   -3.1416   -0.2259 C.2       1 <0>        -0.0632
      7 C6         -0.3923   -2.3791   -1.3280 C.2       1 <0>        -0.2026
      8 S1          0.3749   -3.4525   -2.5085 S.3       1 <0>         0.2509
      9 C7          0.4711   -4.8953   -1.5541 C.2       1 <0>         0.0784
     10 C8         -0.0928   -4.5122   -0.3439 C.2       1 <0>        -0.2312
     11 C9         -0.2107   -5.4542    0.7718 C.2       1 <0>         0.5892
     12 O1         -1.2094   -6.1398    0.8862 O.2       1 <0>        -0.4470
     13 N1          0.7871   -5.5615    1.6714 N.am      1 <0>        -0.6575
     14 C10         0.6787   -6.4282    2.6978 C.2       1 <0>         0.6378
     15 O2         -0.3184   -7.1126    2.8121 O.2       1 <0>        -0.5047
     16 O3          1.6751   -6.5354    3.5964 O.3       1 <0>        -0.3646
     17 C11         1.4900   -7.4891    4.6755 C.3       1 <0>         0.0528
     18 N2          0.9849   -6.1306   -1.9113 N.am      1 <0>        -0.6172
     19 C12         1.4961   -6.3169   -3.1443 C.2       1 <0>         0.5566
     20 O4          1.5062   -5.4007   -3.9428 O.2       1 <0>        -0.4845
     21 C13         2.0451   -7.6369   -3.5259 C.ar      1 <0>        -0.1076
     22 C14         2.0387   -8.6876   -2.6067 C.ar      1 <0>        -0.0956
     23 C15         2.5454   -9.9181   -2.9633 C.ar      1 <0>        -0.0863
     24 C16         3.0752  -10.1113   -4.2411 C.ar      1 <0>        -0.1272
     25 C17         3.0864   -9.0584   -5.1587 C.ar      1 <0>        -0.0655
     26 C18         2.5747   -7.8297   -4.8032 C.ar      1 <0>        -0.0600
     27 C19         3.6249  -11.4306   -4.6222 C.2       1 <0>         0.4370
     28 O5          3.9591  -11.6405   -5.7716 O.2       1 <0>        -0.4334
     29 C20         3.7677  -12.4928   -3.6058 C.ar      1 <0>        -0.1594
     30 C21         4.0882  -12.1633   -2.2866 C.ar      1 <0>        -0.0878
     31 C22         4.2147  -13.1599   -1.3417 C.ar      1 <0>        -0.1273
     32 C23         4.0353  -14.4846   -1.7000 C.ar      1 <0>        -0.0896
     33 C24         3.7232  -14.8187   -3.0063 C.ar      1 <0>        -0.1253
     34 C25         3.5884  -13.8322   -3.9605 C.ar      1 <0>        -0.0643
     35 C26        -0.7768   -0.9418   -1.4994 C.3       1 <0>        -0.0315
     36 H2         -0.9331    1.4310   -0.1671 H         1 <0>         0.0575
     37 H3         -2.3247    1.3041   -1.2697 H         1 <0>         0.0583
     38 H4         -2.5749    1.2321    0.4911 H         1 <0>         0.0588
     39 H5         -0.1076   -0.7155    1.0407 H         1 <0>         0.0686
     40 H6         -1.7172   -0.6221    1.7912 H         1 <0>         0.0721
     41 H7         -0.6553   -2.9172    1.9105 H         1 <0>         0.0711
     42 H8         -2.2398   -2.8947    1.0971 H         1 <0>         0.0817
     43 H9          1.5833   -5.0150    1.5802 H         1 <0>         0.4225
     44 H10         1.3622   -8.4883    4.2593 H         1 <0>         0.0678
     45 H11         2.3643   -7.4756    5.3263 H         1 <0>         0.1099
     46 H12         0.6045   -7.2191    5.2510 H         1 <0>         0.0684
     47 H13         0.9768   -6.8619   -1.2740 H         1 <0>         0.4187
     48 H14         1.6330   -8.5369   -1.6172 H         1 <0>         0.1310
     49 H15         2.5366  -10.7321   -2.2536 H         1 <0>         0.1503
     50 H16         3.4957   -9.2076   -6.1469 H         1 <0>         0.1480
     51 H17         2.5830   -7.0156   -5.5129 H         1 <0>         0.1502
     52 H18         4.2326  -11.1303   -2.0065 H         1 <0>         0.1351
     53 H19         4.4585  -12.9064   -0.3205 H         1 <0>         0.1317
     54 H20         4.1396  -15.2613   -0.9569 H         1 <0>         0.1298
     55 H21         3.5845  -15.8545   -3.2790 H         1 <0>         0.1321
     56 H22         3.3452  -14.0944   -4.9796 H         1 <0>         0.1326
     57 H23        -1.2740   -0.8067   -2.4600 H         1 <0>         0.0831
     58 H24         0.1142   -0.3155   -1.4553 H         1 <0>         0.0859
@<TRIPOS>BOND
     1    1    2 1
     2    1   36 1
     3    1   37 1
     4    1   38 1
     5    2    3 1
     6    2   35 1
     7    2    4 1
     8    4    5 1
     9    4   39 1
    10    4   40 1
    11    5    6 1
    12    5   41 1
    13    5   42 1
    14    6   10 1
    15    6    7 2
    16    7    8 1
    17    7   35 1
    18    8    9 1
    19    9   10 2
    20    9   18 1
    21   10   11 1
    22   11   12 2
    23   11   13 am
    24   13   14 am
    25   13   43 1
    26   14   15 2
    27   14   16 1
    28   16   17 1
    29   17   44 1
    30   17   45 1
    31   17   46 1
    32   18   19 am
    33   18   47 1
    34   19   20 2
    35   19   21 1
    36   21   26 ar
    37   21   22 ar
    38   22   23 ar
    39   22   48 1
    40   23   24 ar
    41   23   49 1
    42   24   25 ar
    43   24   27 1
    44   25   26 ar
    45   25   50 1
    46   26   51 1
    47   27   28 2
    48   27   29 1
    49   29   34 ar
    50   29   30 ar
    51   30   31 ar
    52   30   52 1
    53   31   32 ar
    54   31   53 1
    55   32   33 ar
    56   32   54 1
    57   33   34 ar
    58   33   55 1
    59   34   56 1
    60   35   57 1
    61   35   58 1
@<TRIPOS>MOLECULE
ZINC17157807
   68    72     0     0     0
SMALL
USER_CHARGES
N'-[4-[[(3R,5R)-3,5-dimethyl-1-piperidyl]sulfonyl]benzoyl]adamantane-1-carbohydrazide
@<TRIPOS>ATOM
      1 C1         -2.1981    1.0926   -1.2045 C.3       1 <0>        -0.1559
      2 C2         -0.7523    1.5925   -1.2323 C.3       1 <0>        -0.1075
      3 H1         -0.2558    1.2215   -2.1289 H         1 <0>         0.0853
      4 C3         -0.0127    1.0858    0.0080 C.3       1 <0>        -0.1076
      5 C4         -0.7285    1.5791    1.2676 C.3       1 <0>        -0.1105
      6 H2         -1.7587    1.2231    1.2636 H         1 <0>         0.0787
      7 C5         -0.7166    3.1108    1.2900 C.3       1 <0>         0.1228
      8 N1         -1.2958    3.6064    0.0339 N.pl3     1 <0>        -0.9918
      9 C6         -0.7411    3.1244   -1.2383 C.3       1 <0>         0.1226
     10 S1         -2.5495    4.6881    0.0519 S.o2      1 <0>         2.6862
     11 O1         -2.4853    5.3636    1.3004 O.2       1 <0>        -0.9482
     12 O2         -2.5090    5.3774   -1.1901 O.2       1 <0>        -0.9482
     13 C7         -4.0435    3.7540    0.0610 C.ar      1 <0>        -0.6529
     14 C8         -4.6419    3.4003   -1.1353 C.ar      1 <0>        -0.0213
     15 C9         -5.8087    2.6642   -1.1353 C.ar      1 <0>        -0.1064
     16 C10        -6.3912    2.2855    0.0753 C.ar      1 <0>        -0.0724
     17 C11        -5.7854    2.6505    1.2786 C.ar      1 <0>        -0.0738
     18 C12        -4.6160    3.3823    1.2645 C.ar      1 <0>        -0.0236
     19 C13        -7.6442    1.5009    0.0829 C.2       1 <0>         0.5567
     20 O3         -8.1491    1.1722    1.1386 O.2       1 <0>        -0.5248
     21 N2         -8.2268    1.1500   -1.0807 N.am      1 <0>        -0.5169
     22 N3         -9.4141    0.4065   -1.0735 N.am      1 <0>        -0.5206
     23 C14        -9.9967    0.0557   -2.2372 C.2       1 <0>         0.5255
     24 O4         -9.4929    0.3837   -3.2906 O.2       1 <0>        -0.5325
     25 C15       -11.2739   -0.7441   -2.2294 C.3       1 <0>        -0.0557
     26 C16       -11.0362   -2.0777   -1.5182 C.3       1 <0>        -0.1042
     27 C17       -12.3329   -2.8897   -1.5103 C.3       1 <0>        -0.0834
     28 C18       -12.7792   -3.1520   -2.9501 C.3       1 <0>        -0.1113
     29 C19       -13.0169   -1.8183   -3.6613 C.3       1 <0>        -0.0863
     30 C20       -11.7202   -1.0063   -3.6692 C.3       1 <0>        -0.0870
     31 C21       -14.1050   -1.0344   -2.9248 C.3       1 <0>        -0.1114
     32 C22       -13.6587   -0.7722   -1.4850 C.3       1 <0>        -0.0834
     33 C23       -13.4211   -2.1058   -0.7738 C.3       1 <0>        -0.1117
     34 C24       -12.3620    0.0398   -1.4929 C.3       1 <0>        -0.1045
     35 C25        -0.0076    1.0449    2.5069 C.3       1 <0>        -0.1486
     36 H3         -2.6942    1.4652   -0.3083 H         1 <0>         0.0594
     37 H4         -2.7245    1.4537   -2.0880 H         1 <0>         0.0546
     38 H5         -2.2056    0.0026   -1.1973 H         1 <0>         0.0581
     39 H6          0.0021   -0.0041    0.0020 H         1 <0>         0.0664
     40 H7          1.0100    1.4629    0.0003 H         1 <0>         0.0669
     41 H8          0.3091    3.4671    1.3851 H         1 <0>         0.0793
     42 H9         -1.3080    3.4706    2.1320 H         1 <0>         0.0911
     43 H10         0.2826    3.4818   -1.3494 H         1 <0>         0.0795
     44 H11        -1.3500    3.4910   -2.0647 H         1 <0>         0.0916
     45 H12        -4.1925    3.6977   -2.0712 H         1 <0>         0.1488
     46 H13        -6.2725    2.3849   -2.0698 H         1 <0>         0.1372
     47 H14        -6.2309    2.3603    2.2186 H         1 <0>         0.1500
     48 H15        -4.1462    3.6653    2.1948 H         1 <0>         0.1500
     49 H16        -7.8239    1.4124   -1.9232 H         1 <0>         0.4326
     50 H17        -9.8170    0.1442   -0.2310 H         1 <0>         0.4330
     51 H18       -10.2610   -2.6362   -2.0429 H         1 <0>         0.0715
     52 H19       -10.7182   -1.8909   -0.4925 H         1 <0>         0.0678
     53 H20       -12.1636   -3.8398   -1.0036 H         1 <0>         0.0773
     54 H21       -13.7030   -3.7305   -2.9445 H         1 <0>         0.0667
     55 H22       -12.0040   -3.7104   -3.4748 H         1 <0>         0.0643
     56 H23       -13.3349   -2.0052   -4.6870 H         1 <0>         0.0772
     57 H24       -11.8895   -0.0562   -4.1758 H         1 <0>         0.0722
     58 H25       -10.9450   -1.5648   -4.1938 H         1 <0>         0.0721
     59 H26       -14.2744   -0.0843   -3.4315 H         1 <0>         0.0644
     60 H27       -15.0289   -1.6129   -2.9192 H         1 <0>         0.0667
     61 H28       -14.4339   -0.2137   -0.9603 H         1 <0>         0.0774
     62 H29       -14.3449   -2.6843   -0.7682 H         1 <0>         0.0678
     63 H30       -13.1031   -1.9190    0.2519 H         1 <0>         0.0648
     64 H31       -12.0441    0.2266   -0.4672 H         1 <0>         0.0679
     65 H32       -12.5314    0.9899   -1.9996 H         1 <0>         0.0717
     66 H33         1.0220    1.4026    2.5107 H         1 <0>         0.0586
     67 H34        -0.5178    1.3965    3.4037 H         1 <0>         0.0586
     68 H35        -0.0136   -0.0450    2.4891 H         1 <0>         0.0593
@<TRIPOS>BOND
     1    1    2 1
     2    1   36 1
     3    1   37 1
     4    1   38 1
     5    2    3 1
     6    2    9 1
     7    2    4 1
     8    4    5 1
     9    4   39 1
    10    4   40 1
    11    5    6 1
    12    5    7 1
    13    5   35 1
    14    7    8 1
    15    7   41 1
    16    7   42 1
    17    8    9 1
    18    8   10 1
    19    9   43 1
    20    9   44 1
    21   10   11 2
    22   10   12 2
    23   10   13 1
    24   13   18 ar
    25   13   14 ar
    26   14   15 ar
    27   14   45 1
    28   15   16 ar
    29   15   46 1
    30   16   17 ar
    31   16   19 1
    32   17   18 ar
    33   17   47 1
    34   18   48 1
    35   19   20 2
    36   19   21 am
    37   21   22 1
    38   21   49 1
    39   22   23 am
    40   22   50 1
    41   23   24 2
    42   23   25 1
    43   25   30 1
    44   25   34 1
    45   25   26 1
    46   26   27 1
    47   26   51 1
    48   26   52 1
    49   27   33 1
    50   27   28 1
    51   27   53 1
    52   28   29 1
    53   28   54 1
    54   28   55 1
    55   29   30 1
    56   29   31 1
    57   29   56 1
    58   30   57 1
    59   30   58 1
    60   31   32 1
    61   31   59 1
    62   31   60 1
    63   32   33 1
    64   32   34 1
    65   32   61 1
    66   33   62 1
    67   33   63 1
    68   34   64 1
    69   34   65 1
    70   35   66 1
    71   35   67 1
    72   35   68 1
@<TRIPOS>MOLECULE
ZINC27550678
   57    60     0     0     0
SMALL
USER_CHARGES
(4S)-2-amino-4-(5-ethyl-2-ethylsulfanyl-3-thienyl)-1-(4-nitrophenyl)-5-oxo-4,6,7,8-tetrahydroquinoline-3-carbonitrile
@<TRIPOS>ATOM
      1 C1         -0.6777    1.7563    2.8410 C.3       1 <0>        -0.1496
      2 C2         -1.7006    2.6387    3.5592 C.3       1 <0>        -0.0377
      3 C3         -1.6301    4.0397    3.0086 C.2       1 <0>        -0.1469
      4 C4         -2.3129    4.5829    1.9732 C.2       1 <0>        -0.1222
      5 C5         -2.0864    5.9060    1.6383 C.2       1 <0>        -0.0869
      6 C6         -1.1805    6.6205    2.3641 C.2       1 <0>        -0.1515
      7 S1         -0.6305    5.4127    3.5582 S.3       1 <0>         0.0368
      8 S2         -0.6858    8.3012    2.1768 S.3       1 <0>        -0.0015
      9 C7          0.5428    8.5459    3.4888 C.3       1 <0>        -0.1303
     10 C8          1.0620    9.9843    3.4395 C.3       1 <0>        -0.1385
     11 C9         -2.8270    6.5452    0.4920 C.3       1 <0>         0.1175
     12 H1         -2.5074    7.5893    0.3588 H         1 <0>         0.0919
     13 C10        -2.5191    5.7965   -0.7712 C.2       1 <0>        -0.2421
     14 C11        -3.4098    4.9190   -1.3015 C.2       1 <0>         0.4830
     15 N1         -4.6222    4.7078   -0.6846 N.pl3     1 <0>        -0.5022
     16 C12        -5.1198    5.6239    0.2046 C.2       1 <0>         0.2109
     17 C13        -4.3054    6.5289    0.7881 C.2       1 <0>        -0.2359
     18 C14        -4.8106    7.4838    1.6879 C.2       1 <0>         0.3944
     19 O1         -4.0495    8.2798    2.2014 O.2       1 <0>        -0.4410
     20 C15        -6.2748    7.5386    2.0274 C.3       1 <0>        -0.1703
     21 C16        -7.0830    7.0063    0.8395 C.3       1 <0>        -0.1107
     22 C17        -6.5959    5.5921    0.5162 C.3       1 <0>        -0.0982
     23 C18        -5.3523    3.5475   -0.9676 C.ar      1 <0>         0.1623
     24 C19        -6.2341    3.5245   -2.0403 C.ar      1 <0>        -0.1151
     25 C20        -6.9497    2.3768   -2.3194 C.ar      1 <0>        -0.0418
     26 C21        -6.7965    1.2545   -1.5261 C.ar      1 <0>        -0.0295
     27 C22        -5.9229    1.2757   -0.4543 C.ar      1 <0>        -0.0400
     28 C23        -5.2007    2.4187   -0.1727 C.ar      1 <0>        -0.0993
     29 N2         -7.5698    0.0280   -1.8244 N.pl3     1 <0>         0.0214
     30 O2         -7.4361   -0.9610   -1.1263 O.2       1 <0>        -0.1466
     31 O3         -8.3396    0.0079   -2.7681 O.3       1 <0>        -0.1469
     32 N3         -3.1000    4.2404   -2.4558 N.pl3     1 <0>        -0.8773
     33 C24        -1.2649    6.0103   -1.4283 C.1       1 <0>         0.2735
     34 N4         -0.2699    6.1799   -1.9497 N.1       1 <0>        -0.4473
     35 H2         -0.7292    0.7337    3.2430 H         1 <0>         0.0638
     36 H3          0.3323    2.1622    2.9997 H         1 <0>         0.0580
     37 H4         -0.9007    1.7386    1.7640 H         1 <0>         0.0566
     38 H5         -2.7106    2.2328    3.4005 H         1 <0>         0.0828
     39 H6         -1.4776    2.6564    4.6362 H         1 <0>         0.0782
     40 H7         -3.0244    3.9914    1.4163 H         1 <0>         0.1212
     41 H8          0.0768    8.3576    4.4673 H         1 <0>         0.0898
     42 H9          1.3805    7.8484    3.3414 H         1 <0>         0.0874
     43 H10         1.8070   10.1327    4.2351 H         1 <0>         0.0779
     44 H11         0.2242   10.6817    3.5869 H         1 <0>         0.0693
     45 H12         1.5280   10.1726    2.4610 H         1 <0>         0.0673
     46 H13        -6.4687    6.9189    2.9153 H         1 <0>         0.1009
     47 H14        -6.5641    8.5791    2.2362 H         1 <0>         0.1005
     48 H15        -8.1508    6.9848    1.1027 H         1 <0>         0.0888
     49 H16        -6.9329    7.6632   -0.0300 H         1 <0>         0.0775
     50 H17        -7.1462    5.2062   -0.3545 H         1 <0>         0.0887
     51 H18        -6.7739    4.9374    1.3820 H         1 <0>         0.0998
     52 H19        -6.3575    4.4021   -2.6576 H         1 <0>         0.1583
     53 H20        -7.6326    2.3569   -3.1560 H         1 <0>         0.1656
     54 H21        -5.8055    0.3976    0.1634 H         1 <0>         0.1652
     55 H22        -4.5186    2.4347    0.6644 H         1 <0>         0.1553
     56 H23        -3.8207    3.5295   -2.8861 H         1 <0>         0.4191
     57 H24        -2.1314    4.4082   -2.9493 H         1 <0>         0.4456
@<TRIPOS>BOND
     1    1    2 1
     2    1   35 1
     3    1   36 1
     4    1   37 1
     5    2    3 1
     6    2   38 1
     7    2   39 1
     8    3    7 1
     9    3    4 2
    10    4    5 1
    11    4   40 1
    12    5    6 2
    13    5   11 1
    14    6    7 1
    15    6    8 1
    16    8    9 1
    17    9   10 1
    18    9   41 1
    19    9   42 1
    20   10   43 1
    21   10   44 1
    22   10   45 1
    23   11   12 1
    24   11   17 1
    25   11   13 1
    26   13   14 2
    27   13   33 1
    28   14   15 1
    29   14   32 1
    30   15   16 1
    31   15   23 1
    32   16   22 1
    33   16   17 2
    34   17   18 1
    35   18   19 2
    36   18   20 1
    37   20   21 1
    38   20   46 1
    39   20   47 1
    40   21   22 1
    41   21   48 1
    42   21   49 1
    43   22   50 1
    44   22   51 1
    45   23   28 ar
    46   23   24 ar
    47   24   25 ar
    48   24   52 1
    49   25   26 ar
    50   25   53 1
    51   26   27 ar
    52   26   29 1
    53   27   28 ar
    54   27   54 1
    55   28   55 1
    56   29   30 2
    57   29   31 1
    58   32   56 1
    59   32   57 1
    60   33   34 3
@<TRIPOS>MOLECULE
ZINC39517953
   47    50     0     0     0
SMALL
USER_CHARGES

@<TRIPOS>ATOM
      1 C1         -0.0415    1.5132    0.0117 C.3       1 <0>        -0.1555
      2 C2         -0.0117   -0.0165    0.0037 C.3       1 <0>        -0.0856
      3 H1         -1.0321   -0.3997    0.0126 H         1 <0>         0.0975
      4 C3          0.7060   -0.5061   -1.2568 C.3       1 <0>        -0.1125
      5 C4          0.7530   -2.0354   -1.2538 C.3       1 <0>        -0.1259
      6 C5          1.5172   -2.5221   -0.0209 C.3       1 <0>        -0.1169
      7 C6          0.8025   -2.0397    1.2442 C.3       1 <0>        -0.1159
      8 C7          0.7296   -0.5168    1.2386 C.3       1 <0>         0.1334
      9 C8          0.0580   -0.0160    2.4964 C.2       1 <0>         0.5399
     10 O1         -1.0736   -0.2460    2.8656 O.2       1 <0>        -0.4549
     11 N1          0.9835    0.7404    3.1223 N.am      1 <0>        -0.5658
     12 C9          2.1321    0.7822    2.4362 C.2       1 <0>         0.7097
     13 O2          3.1140    1.3998    2.7988 O.2       1 <0>        -0.5367
     14 N2          2.0776    0.0629    1.2989 N.am      1 <0>        -0.7093
     15 C10         0.7589    1.4308    4.3948 C.3       1 <0>         0.1102
     16 C11         1.1429    0.5220    5.5339 C.2       1 <0>         0.5034
     17 O3          1.5627   -0.5927    5.3054 O.2       1 <0>        -0.4858
     18 N3          1.0197    0.9479    6.8067 N.am      1 <0>        -0.6065
     19 C12         1.3737    0.1099    7.8571 C.2       1 <0>         0.2517
     20 N4          1.3155    0.3525    9.1473 N.2       1 <0>        -0.5327
     21 C13         1.6929   -0.5594   10.0341 C.2       1 <0>         0.1385
     22 C14         2.1399   -1.7505    9.5350 C.2       1 <0>        -0.2638
     23 S1          1.9724   -1.4607    7.7813 S.3       1 <0>         0.2364
     24 C15         1.6330   -0.2989   11.4945 C.2       1 <0>        -0.0405
     25 C16         1.9339   -1.3039   12.4097 C.2       1 <0>        -0.1171
     26 C17         1.8683   -1.0270   13.7328 C.2       1 <0>        -0.1172
     27 S2          1.3722    0.6874   13.7364 S.3       1 <0>         0.1496
     28 C18         1.2868    0.9344   11.9707 C.2       1 <0>        -0.0825
     29 Cl1         0.8705    2.3695   11.0871 Cl        1 <0>         0.0500
     30 Cl2         2.1852   -2.0726   15.0819 Cl        1 <0>         0.0301
     31 H2          0.9789    1.8965    0.0028 H         1 <0>         0.0620
     32 H3         -0.5717    1.8709   -0.8709 H         1 <0>         0.0706
     33 H4         -0.5528    1.8619    0.9090 H         1 <0>         0.0516
     34 H5          0.1673   -0.1607   -2.1392 H         1 <0>         0.0762
     35 H6          1.7219   -0.1113   -1.2732 H         1 <0>         0.0658
     36 H7         -0.2629   -2.4298   -1.2303 H         1 <0>         0.0690
     37 H8          1.2571   -2.3850   -2.1547 H         1 <0>         0.0705
     38 H9          1.5557   -3.6114   -0.0237 H         1 <0>         0.0761
     39 H10         2.5311   -2.1223   -0.0404 H         1 <0>         0.0650
     40 H11        -0.2063   -2.4517    1.2709 H         1 <0>         0.0903
     41 H12         1.3544   -2.3737    2.1228 H         1 <0>         0.0791
     42 H13         2.7882   -0.0502    0.6484 H         1 <0>         0.4414
     43 H14         1.3673    2.3345    4.4301 H         1 <0>         0.1406
     44 H15        -0.2942    1.6981    4.4823 H         1 <0>         0.1379
     45 H16         0.6839    1.8394    6.9895 H         1 <0>         0.4276
     46 H17         2.4935   -2.6270   10.0575 H         1 <0>         0.1979
     47 H18         2.2150   -2.2894   12.0691 H         1 <0>         0.1533
@<TRIPOS>BOND
     1    1    2 1
     2    1   31 1
     3    1   32 1
     4    1   33 1
     5    2    3 1
     6    2    8 1
     7    2    4 1
     8    4    5 1
     9    4   34 1
    10    4   35 1
    11    5    6 1
    12    5   36 1
    13    5   37 1
    14    6    7 1
    15    6   38 1
    16    6   39 1
    17    7    8 1
    18    7   40 1
    19    7   41 1
    20    8   14 1
    21    8    9 1
    22    9   10 2
    23    9   11 am
    24   11   12 am
    25   11   15 1
    26   12   13 2
    27   12   14 am
    28   14   42 1
    29   15   16 1
    30   15   43 1
    31   15   44 1
    32   16   17 2
    33   16   18 am
    34   18   19 1
    35   18   45 1
    36   19   23 1
    37   19   20 2
    38   20   21 1
    39   21   22 2
    40   21   24 1
    41   22   23 1
    42   22   46 1
    43   24   28 2
    44   24   25 1
    45   25   26 2
    46   25   47 1
    47   26   27 1
    48   26   30 1
    49   27   28 1
    50   28   29 1
@<TRIPOS>MOLECULE
ZINC59984777
   61    64     0     0     0
SMALL
USER_CHARGES

@<TRIPOS>ATOM
      1 C1          4.2979   -0.4458    5.4406 C.ar      1 <0>        -0.0713
      2 C2          5.0173    0.3554    4.5752 C.ar      1 <0>        -0.1395
      3 C3          4.3816    0.9585    3.4974 C.ar      1 <0>         0.1748
      4 C4          3.0232    0.7542    3.2925 C.ar      1 <0>        -0.1921
      5 C5          2.3079   -0.0490    4.1621 C.ar      1 <0>         0.1252
      6 C6          2.9460   -0.6485    5.2357 C.ar      1 <0>        -0.1616
      7 F1          0.9864   -0.2486    3.9647 F         1 <0>        -0.1318
      8 N1          5.1070    1.7693    2.6216 N.pl3     1 <0>        -1.0563
      9 S1          4.9261    1.5900    0.9853 S.o2      1 <0>         2.6901
     10 O1          3.5316    1.6601    0.7208 O.2       1 <0>        -0.9460
     11 O2          5.8623    2.4674    0.3746 O.2       1 <0>        -0.9453
     12 C7          5.4335   -0.0482    0.5814 C.ar      1 <0>        -0.6935
     13 C8          6.7716   -0.3227    0.3661 C.ar      1 <0>         0.0037
     14 C9          7.1726   -1.6058    0.0493 C.ar      1 <0>        -0.1426
     15 C10         6.2304   -2.6209   -0.0524 C.ar      1 <0>         0.2112
     16 C11         4.8875   -2.3421    0.1649 C.ar      1 <0>        -0.1653
     17 C12         4.4935   -1.0579    0.4860 C.ar      1 <0>         0.0052
     18 N2          6.6334   -3.9219   -0.3736 N.am      1 <0>        -0.6773
     19 C13         7.6562   -4.1187   -1.2289 C.2       1 <0>         0.5073
     20 O3          8.2832   -3.1709   -1.6529 O.2       1 <0>        -0.4877
     21 C14         8.0209   -5.5164   -1.6585 C.3       1 <0>         0.1220
     22 H1          7.1684   -5.9882   -2.1471 H         1 <0>         0.1071
     23 C15         8.4485   -6.3480   -0.4308 C.3       1 <0>        -0.1270
     24 C16         9.6212   -7.2021   -0.9810 C.3       1 <0>        -0.1315
     25 C17        10.2883   -6.2140   -1.9700 C.3       1 <0>         0.0972
     26 N3          9.1651   -5.4735   -2.5807 N.am      1 <0>        -0.6065
     27 C18         9.1839   -4.8610   -3.7811 C.2       1 <0>         0.5419
     28 O4          8.1970   -4.2808   -4.1814 O.2       1 <0>        -0.5214
     29 C19        10.4313   -4.8971   -4.6260 C.3       1 <0>        -0.0965
     30 C20        11.5848   -4.2457   -3.8605 C.3       1 <0>        -0.1156
     31 C21        12.8512   -4.2823   -4.7183 C.3       1 <0>        -0.1168
     32 C22        12.6072   -3.5176   -6.0208 C.3       1 <0>        -0.1235
     33 C23        11.4537   -4.1691   -6.7863 C.3       1 <0>        -0.1192
     34 C24        10.1873   -4.1324   -5.9285 C.3       1 <0>        -0.1001
     35 H2          4.7935   -0.9181    6.2759 H         1 <0>         0.1397
     36 H3          6.0734    0.5131    4.7368 H         1 <0>         0.1365
     37 H4          2.5261    1.2220    2.4556 H         1 <0>         0.1684
     38 H5          2.3862   -1.2757    5.9137 H         1 <0>         0.1398
     39 H6          5.7169    2.4374    2.9718 H         1 <0>         0.4309
     40 H7          7.5038    0.4672    0.4454 H         1 <0>         0.1426
     41 H8          8.2177   -1.8194   -0.1194 H         1 <0>         0.1479
     42 H9          4.1523   -3.1293    0.0861 H         1 <0>         0.1382
     43 H10         3.4497   -0.8413    0.6591 H         1 <0>         0.1456
     44 H11         6.1766   -4.6820    0.0193 H         1 <0>         0.4148
     45 H12         8.7896   -5.6983    0.3752 H         1 <0>         0.0836
     46 H13         7.6316   -6.9861   -0.0938 H         1 <0>         0.0964
     47 H14        10.3095   -7.4807   -0.1831 H         1 <0>         0.0929
     48 H15         9.2507   -8.0853   -1.5014 H         1 <0>         0.0842
     49 H16        10.9489   -5.5308   -1.4361 H         1 <0>         0.0755
     50 H17        10.8422   -6.7586   -2.7347 H         1 <0>         0.0859
     51 H18        10.6855   -5.9321   -4.8545 H         1 <0>         0.0952
     52 H19        11.3305   -3.2106   -3.6320 H         1 <0>         0.0695
     53 H20        11.7586   -4.7904   -2.9326 H         1 <0>         0.0701
     54 H21        13.6729   -3.8182   -4.1730 H         1 <0>         0.0661
     55 H22        13.1054   -5.3173   -4.9468 H         1 <0>         0.0636
     56 H23        12.3530   -2.4826   -5.7924 H         1 <0>         0.0633
     57 H24        13.5094   -3.5438   -6.6319 H         1 <0>         0.0637
     58 H25        11.2799   -3.6243   -7.7143 H         1 <0>         0.0667
     59 H26        11.7080   -5.2041   -7.0148 H         1 <0>         0.0623
     60 H27         9.3655   -4.5965   -6.4739 H         1 <0>         0.0685
     61 H28         9.9331   -3.0974   -5.7001 H         1 <0>         0.0707
@<TRIPOS>BOND
     1    1    6 ar
     2    1    2 ar
     3    1   35 1
     4    2    3 ar
     5    2   36 1
     6    3    4 ar
     7    3    8 1
     8    4    5 ar
     9    4   37 1
    10    5    6 ar
    11    5    7 1
    12    6   38 1
    13    8    9 1
    14    8   39 1
    15    9   10 2
    16    9   11 2
    17    9   12 1
    18   12   17 ar
    19   12   13 ar
    20   13   14 ar
    21   13   40 1
    22   14   15 ar
    23   14   41 1
    24   15   16 ar
    25   15   18 1
    26   16   17 ar
    27   16   42 1
    28   17   43 1
    29   18   19 am
    30   18   44 1
    31   19   20 2
    32   19   21 1
    33   21   22 1
    34   21   26 1
    35   21   23 1
    36   23   24 1
    37   23   45 1
    38   23   46 1
    39   24   25 1
    40   24   47 1
    41   24   48 1
    42   25   26 1
    43   25   49 1
    44   25   50 1
    45   26   27 am
    46   27   28 2
    47   27   29 1
    48   29   34 1
    49   29   30 1
    50   29   51 1
    51   30   31 1
    52   30   52 1
    53   30   53 1
    54   31   32 1
    55   31   54 1
    56   31   55 1
    57   32   33 1
    58   32   56 1
    59   32   57 1
    60   33   34 1
    61   33   58 1
    62   33   59 1
    63   34   60 1
    64   34   61 1
@<TRIPOS>MOLECULE
ZINC01171412
   47    49     0     0     0
SMALL
USER_CHARGES
2,4-dichloro-N-[3-[(3-methylbenzoyl)thiocarbamoylamino]phenyl]-benzamide
@<TRIPOS>ATOM
      1 C1         -1.4565    0.9198   -2.6503 C.3       1 <0>        -0.1188
      2 C2         -0.4427    1.7009   -1.8546 C.ar      1 <0>        -0.0878
      3 C3          0.4950    1.0333   -1.0864 C.ar      1 <0>        -0.0896
      4 C4          1.4325    1.7426   -0.3571 C.ar      1 <0>        -0.1192
      5 C5          1.4350    3.1220   -0.3872 C.ar      1 <0>        -0.0971
      6 C6          0.4886    3.8018   -1.1559 C.ar      1 <0>        -0.1325
      7 C7         -0.4548    3.0797   -1.8896 C.ar      1 <0>        -0.0543
      8 C8          0.4849    5.2790   -1.1926 C.2       1 <0>         0.5353
      9 O1         -0.3402    5.8681   -1.8627 O.2       1 <0>        -0.3995
     10 N1          1.3966    5.9731   -0.4829 N.am      1 <0>        -0.6395
     11 C9          1.3932    7.3204   -0.5164 C.2       1 <0>         0.5116
     12 S1          0.2308    8.1503   -1.4604 S.2       1 <0>        -0.4802
     13 N2          2.3049    8.0144    0.1932 N.pl3     1 <0>        -0.6176
     14 C10         2.3518    9.4091    0.0973 C.ar      1 <0>         0.1302
     15 C11         1.1749   10.1477    0.1187 C.ar      1 <0>        -0.0781
     16 C12         1.2204   11.5251    0.0244 C.ar      1 <0>        -0.0955
     17 C13         2.4354   12.1729   -0.0920 C.ar      1 <0>        -0.1282
     18 C14         3.6155   11.4403   -0.1145 C.ar      1 <0>         0.1433
     19 C15         3.5736   10.0568   -0.0137 C.ar      1 <0>        -0.1161
     20 N3          4.8448   12.0967   -0.2322 N.am      1 <0>        -0.6657
     21 C16         5.8439   11.5343   -0.9406 C.2       1 <0>         0.5551
     22 O2          5.6960   10.4312   -1.4300 O.2       1 <0>        -0.4903
     23 C17         7.1184   12.2578   -1.1224 C.ar      1 <0>        -0.1299
     24 C18         7.2916   13.5253   -0.5616 C.ar      1 <0>        -0.0604
     25 C19         8.4833   14.1957   -0.7347 C.ar      1 <0>        -0.1133
     26 C20         9.5093   13.6155   -1.4635 C.ar      1 <0>         0.0021
     27 C21         9.3453   12.3598   -2.0224 C.ar      1 <0>        -0.1123
     28 C22         8.1584   11.6750   -1.8516 C.ar      1 <0>         0.0273
     29 Cl1         7.9564   10.0970   -2.5464 Cl        1 <0>        -0.0130
     30 Cl2        11.0067   14.4676   -1.6769 Cl        1 <0>        -0.0429
     31 H1         -2.3441    0.7501   -2.0409 H         1 <0>         0.0758
     32 H2         -1.7305    1.4830   -3.5423 H         1 <0>         0.0721
     33 H3         -1.0282   -0.0388   -2.9431 H         1 <0>         0.0708
     34 H4          0.4977   -0.0463   -1.0595 H         1 <0>         0.1308
     35 H5          2.1643    1.2154    0.2369 H         1 <0>         0.1322
     36 H6          2.1676    3.6745    0.1823 H         1 <0>         0.1214
     37 H7         -1.1900    3.5995   -2.4860 H         1 <0>         0.1409
     38 H8          2.0551    5.5029    0.0519 H         1 <0>         0.4093
     39 H9          2.9285    7.5468    0.7705 H         1 <0>         0.4076
     40 H10         0.2237    9.6444    0.2096 H         1 <0>         0.1501
     41 H11         0.3043   12.0969    0.0413 H         1 <0>         0.1355
     42 H12         2.4675   13.2499   -0.1659 H         1 <0>         0.1296
     43 H13         4.4899    9.4853   -0.0258 H         1 <0>         0.1405
     44 H14         4.9783   12.9568    0.1959 H         1 <0>         0.4104
     45 H15         6.4933   13.9789    0.0070 H         1 <0>         0.1460
     46 H16         8.6180   15.1756   -0.3010 H         1 <0>         0.1501
     47 H17        10.1488   11.9129   -2.5890 H         1 <0>         0.1535
@<TRIPOS>BOND
     1    1    2 1
     2    1   31 1
     3    1   32 1
     4    1   33 1
     5    2    7 ar
     6    2    3 ar
     7    3    4 ar
     8    3   34 1
     9    4    5 ar
    10    4   35 1
    11    5    6 ar
    12    5   36 1
    13    6    7 ar
    14    6    8 1
    15    7   37 1
    16    8    9 2
    17    8   10 am
    18   10   11 1
    19   10   38 1
    20   11   12 2
    21   11   13 1
    22   13   14 1
    23   13   39 1
    24   14   19 ar
    25   14   15 ar
    26   15   16 ar
    27   15   40 1
    28   16   17 ar
    29   16   41 1
    30   17   18 ar
    31   17   42 1
    32   18   19 ar
    33   18   20 1
    34   19   43 1
    35   20   21 am
    36   20   44 1
    37   21   22 2
    38   21   23 1
    39   23   28 ar
    40   23   24 ar
    41   24   25 ar
    42   24   45 1
    43   25   26 ar
    44   25   46 1
    45   26   27 ar
    46   26   30 1
    47   27   28 ar
    48   27   47 1
    49   28   29 1
@<TRIPOS>MOLECULE
ZINC14544861
   58    63     0     0     0
SMALL
USER_CHARGES
(3aR,4R,9bR)-N-benzyl-4-(1H-indol-3-yl)-3a,4,5,9b-tetrahydro-3H-cyclopenta[c]quinoline-8-sulfonamide
@<TRIPOS>ATOM
      1 C1          4.4715   -0.9033    0.9969 C.ar      1 <0>        -0.1123
      2 C2          4.0972   -0.7398   -0.3237 C.ar      1 <0>        -0.1223
      3 C3          3.0540    0.1078   -0.6465 C.ar      1 <0>        -0.1030
      4 C4          2.3848    0.7915    0.3513 C.ar      1 <0>        -0.1022
      5 C5          2.7626    0.6321    1.6714 C.ar      1 <0>        -0.1005
      6 C6          3.8030   -0.2188    1.9946 C.ar      1 <0>        -0.1212
      7 C7          1.2475    1.7155   -0.0006 C.3       1 <0>         0.1593
      8 N1         -0.0111    0.9658    0.0074 N.pl3     1 <0>        -1.1151
      9 S1         -1.4563    1.7742    0.0186 S.o2      1 <0>         2.6974
     10 O1         -2.4755    0.7845   -0.0090 O.2       1 <0>        -0.9615
     11 O2         -1.3685    2.7488    1.0490 O.2       1 <0>        -0.9608
     12 C8         -1.5709    2.6577   -1.5016 C.ar      1 <0>        -0.7301
     13 C9         -1.0888    3.9511   -1.5882 C.ar      1 <0>         0.0246
     14 C10        -1.1670    4.6418   -2.7799 C.ar      1 <0>        -0.2154
     15 C11        -1.7373    4.0474   -3.8994 C.ar      1 <0>         0.2769
     16 C12        -2.2368    2.7441   -3.8001 C.ar      1 <0>        -0.1564
     17 C13        -2.1480    2.0603   -2.6069 C.ar      1 <0>         0.0323
     18 C14        -2.8611    2.1582   -5.0062 C.3       1 <0>        -0.0310
     19 H1         -3.8847    2.5270   -5.0714 H         1 <0>         0.0856
     20 C15        -2.8837    0.6920   -5.2446 C.2       1 <0>        -0.1527
     21 C16        -2.8476    0.4748   -6.5537 C.2       1 <0>        -0.1638
     22 C17        -2.7625    1.8062   -7.3027 C.3       1 <0>        -0.0838
     23 C18        -2.0876    2.6892   -6.2503 C.3       1 <0>        -0.0955
     24 H2         -1.0175    2.4958   -6.1764 H         1 <0>         0.0940
     25 C19        -2.3971    4.1739   -6.3163 C.3       1 <0>         0.2407
     26 H3         -3.4752    4.3345   -6.3127 H         1 <0>         0.0834
     27 N2         -1.7887    4.7615   -5.1027 N.pl3     1 <0>        -0.7354
     28 C20        -1.7827    4.7794   -7.5521 C.2       1 <0>        -0.1824
     29 C21        -0.5957    5.4012   -7.6311 C.2       1 <0>         0.0666
     30 N3         -0.3714    5.8172   -8.9152 N.pl3     1 <0>        -0.5924
     31 H4          0.4207    6.2879   -9.2181 H         1 <0>         0.4181
     32 C22        -1.4396    5.4718   -9.7125 C.ar      1 <0>         0.0970
     33 C23        -2.3705    4.8065   -8.8936 C.ar      1 <0>        -0.0906
     34 C24        -3.5662    4.3356   -9.4387 C.ar      1 <0>        -0.0719
     35 C25        -3.8267    4.5235  -10.7670 C.ar      1 <0>        -0.1415
     36 C26        -2.9119    5.1795  -11.5789 C.ar      1 <0>        -0.0958
     37 C27        -1.7255    5.6522  -11.0616 C.ar      1 <0>        -0.1290
     38 H5          5.2861   -1.5660    1.2492 H         1 <0>         0.1231
     39 H6          4.6195   -1.2746   -1.1032 H         1 <0>         0.1237
     40 H7          2.7615    0.2355   -1.6783 H         1 <0>         0.1241
     41 H8          2.2427    1.1697    2.4506 H         1 <0>         0.1267
     42 H9          4.0953   -0.3468    3.0264 H         1 <0>         0.1248
     43 H10         1.4141    2.1353   -0.9927 H         1 <0>         0.0746
     44 H11         1.1948    2.5218    0.7309 H         1 <0>         0.0889
     45 H12         0.0021   -0.0041    0.0020 H         1 <0>         0.4194
     46 H13        -0.6466    4.4202   -0.7217 H         1 <0>         0.1383
     47 H14        -0.7870    5.6508   -2.8421 H         1 <0>         0.1293
     48 H15        -2.5307    1.0529   -2.5350 H         1 <0>         0.1369
     49 H16        -2.9226   -0.0700   -4.4803 H         1 <0>         0.1321
     50 H17        -2.8747   -0.4984   -7.0212 H         1 <0>         0.1299
     51 H18        -2.1344    1.7164   -8.1890 H         1 <0>         0.0742
     52 H19        -3.7556    2.1711   -7.5649 H         1 <0>         0.0826
     53 H20        -1.4191    5.6576   -5.1410 H         1 <0>         0.4021
     54 H21         0.0827    5.5495   -6.8039 H         1 <0>         0.1673
     55 H22        -4.2829    3.8245   -8.8129 H         1 <0>         0.1213
     56 H23        -4.7517    4.1585  -11.1884 H         1 <0>         0.1241
     57 H24        -3.1320    5.3206  -12.6268 H         1 <0>         0.1266
     58 H25        -1.0201    6.1614  -11.7015 H         1 <0>         0.1207
@<TRIPOS>BOND
     1    1    6 ar
     2    1    2 ar
     3    1   38 1
     4    2    3 ar
     5    2   39 1
     6    3    4 ar
     7    3   40 1
     8    4    5 ar
     9    4    7 1
    10    5    6 ar
    11    5   41 1
    12    6   42 1
    13    7    8 1
    14    7   43 1
    15    7   44 1
    16    8    9 1
    17    8   45 1
    18    9   10 2
    19    9   11 2
    20    9   12 1
    21   12   17 ar
    22   12   13 ar
    23   13   14 ar
    24   13   46 1
    25   14   15 ar
    26   14   47 1
    27   15   27 1
    28   15   16 ar
    29   16   17 ar
    30   16   18 1
    31   17   48 1
    32   18   19 1
    33   18   23 1
    34   18   20 1
    35   20   21 2
    36   20   49 1
    37   21   22 1
    38   21   50 1
    39   22   23 1
    40   22   51 1
    41   22   52 1
    42   23   24 1
    43   23   25 1
    44   25   26 1
    45   25   27 1
    46   25   28 1
    47   27   53 1
    48   28   33 1
    49   28   29 2
    50   29   30 1
    51   29   54 1
    52   30   31 1
    53   30   32 1
    54   32   37 ar
    55   32   33 ar
    56   33   34 ar
    57   34   35 ar
    58   34   55 1
    59   35   36 ar
    60   35   56 1
    61   36   37 ar
    62   36   57 1
    63   37   58 1
@<TRIPOS>MOLECULE
ZINC20719743
   55    60     0     0     0
SMALL
USER_CHARGES
(3aR,4S,9bS)-4-(1H-indol-3-yl)-N-phenyl-3a,4,5,9b-tetrahydro-3H-cyclopenta[c]quinoline-8-sulfonamide
@<TRIPOS>ATOM
      1 C1         -7.8708   -2.7948    1.1387 C.ar      1 <0>        -0.1131
      2 C2         -7.6641   -4.0108    0.5136 C.ar      1 <0>        -0.1121
      3 C3         -6.3826   -4.5040    0.3657 C.ar      1 <0>        -0.1076
      4 C4         -5.3006   -3.7770    0.8457 C.ar      1 <0>         0.1306
      5 C5         -5.5122   -2.5583    1.4778 C.ar      1 <0>        -0.1118
      6 C6         -6.7959   -2.0685    1.6177 C.ar      1 <0>        -0.1147
      7 N1         -4.0033   -4.2730    0.6982 N.pl3     1 <0>        -1.0796
      8 S1         -3.2720   -4.2503   -0.7874 S.o2      1 <0>         2.6934
      9 O1         -4.2050   -4.7996   -1.7077 O.2       1 <0>        -0.9572
     10 O2         -1.9704   -4.7914   -0.6077 O.2       1 <0>        -0.9610
     11 C7         -3.0571   -2.5601   -1.2365 C.ar      1 <0>        -0.7240
     12 C8         -3.9999   -1.9338   -2.0314 C.ar      1 <0>         0.0218
     13 C9         -3.8274   -0.6099   -2.3828 C.ar      1 <0>        -0.2100
     14 C10        -2.7107    0.0874   -1.9391 C.ar      1 <0>         0.2751
     15 C11        -1.7651   -0.5353   -1.1390 C.ar      1 <0>        -0.1632
     16 C12        -1.9493   -1.8672   -0.7932 C.ar      1 <0>         0.0225
     17 C13        -0.5502    0.1760   -0.6340 C.3       1 <0>         0.0000
     18 H1         -0.5230   -0.1033    0.4296 H         1 <0>         0.0891
     19 C14         0.6905   -0.2529   -1.3806 C.2       1 <0>        -0.1708
     20 C15         1.4998    0.7660   -1.5392 C.2       1 <0>        -0.1432
     21 C16         0.9100    2.0151   -0.9136 C.3       1 <0>        -0.0869
     22 C17        -0.6134    1.7009   -0.8472 C.3       1 <0>        -0.0871
     23 H2         -1.2149    2.2442   -0.1036 H         1 <0>         0.0977
     24 C18        -1.2039    2.0119   -2.2254 C.3       1 <0>         0.2299
     25 H3         -1.2958    3.0960   -2.3873 H         1 <0>         0.0947
     26 N2         -2.5459    1.4263   -2.3099 N.pl3     1 <0>        -0.7473
     27 C19        -0.3260    1.4178   -3.2965 C.2       1 <0>        -0.1826
     28 C20        -0.4555    0.2027   -3.8521 C.2       1 <0>         0.0693
     29 N3          0.5233    0.0113   -4.7890 N.pl3     1 <0>        -0.6058
     30 H4          0.5718   -0.9346   -5.3484 H         1 <0>         0.4402
     31 C21         1.3270    1.1271   -4.8610 C.ar      1 <0>         0.1090
     32 C22         0.8267    2.0593   -3.9334 C.ar      1 <0>        -0.0858
     33 C23         1.4476    3.3014   -3.7905 C.ar      1 <0>        -0.0760
     34 C24         2.5377    3.6070   -4.5559 C.ar      1 <0>        -0.1467
     35 C25         3.0330    2.6922   -5.4746 C.ar      1 <0>        -0.1020
     36 C26         2.4400    1.4577   -5.6266 C.ar      1 <0>        -0.1311
     37 H5         -8.8739   -2.4112    1.2528 H         1 <0>         0.1254
     38 H6         -8.5057   -4.5754    0.1403 H         1 <0>         0.1286
     39 H7         -6.2218   -5.4536   -0.1230 H         1 <0>         0.1333
     40 H8         -4.6735   -1.9927    1.8561 H         1 <0>         0.1265
     41 H9         -6.9608   -1.1191    2.1055 H         1 <0>         0.1259
     42 H10        -3.4673   -4.6787    1.5689 H         1 <0>         0.4493
     43 H11        -4.8671   -2.4778   -2.3754 H         1 <0>         0.1364
     44 H12        -4.5607   -0.1161   -3.0032 H         1 <0>         0.1291
     45 H13        -1.2192   -2.3652   -0.1723 H         1 <0>         0.1325
     46 H14         0.9681   -1.2421   -1.7735 H         1 <0>         0.1195
     47 H15         2.4549    0.6326   -2.0684 H         1 <0>         0.1191
     48 H16         1.3502    2.1691    0.0826 H         1 <0>         0.0755
     49 H17         1.1316    2.8840   -1.5507 H         1 <0>         0.0799
     50 H18        -3.3917    2.0374   -2.6580 H         1 <0>         0.4292
     51 H19        -1.2193   -0.5171   -3.5976 H         1 <0>         0.1592
     52 H20         1.0680    4.0181   -3.0773 H         1 <0>         0.1184
     53 H21         3.0179    4.5680   -4.4447 H         1 <0>         0.1199
     54 H22         3.8953    2.9483   -6.0723 H         1 <0>         0.1223
     55 H23         2.8318    0.7533   -6.3455 H         1 <0>         0.1164
@<TRIPOS>BOND
     1    1    6 ar
     2    1    2 ar
     3    1   37 1
     4    2    3 ar
     5    2   38 1
     6    3    4 ar
     7    3   39 1
     8    4    5 ar
     9    4    7 1
    10    5    6 ar
    11    5   40 1
    12    6   41 1
    13    7    8 1
    14    7   42 1
    15    8    9 2
    16    8   10 2
    17    8   11 1
    18   11   16 ar
    19   11   12 ar
    20   12   13 ar
    21   12   43 1
    22   13   14 ar
    23   13   44 1
    24   14   26 1
    25   14   15 ar
    26   15   16 ar
    27   15   17 1
    28   16   45 1
    29   17   18 1
    30   17   22 1
    31   17   19 1
    32   19   20 2
    33   19   46 1
    34   20   21 1
    35   20   47 1
    36   21   22 1
    37   21   48 1
    38   21   49 1
    39   22   23 1
    40   22   24 1
    41   24   25 1
    42   24   26 1
    43   24   27 1
    44   26   50 1
    45   27   32 1
    46   27   28 2
    47   28   29 1
    48   28   51 1
    49   29   30 1
    50   29   31 1
    51   31   36 ar
    52   31   32 ar
    53   32   33 ar
    54   33   34 ar
    55   33   52 1
    56   34   35 ar
    57   34   53 1
    58   35   36 ar
    59   35   54 1
    60   36   55 1
@<TRIPOS>MOLECULE
ZINC34784768
   46    49     0     0     0
SMALL
USER_CHARGES

@<TRIPOS>ATOM
      1 C1          4.7816    0.0209   -6.0604 C.ar      1 <0>        -0.1123
      2 C2          3.5857   -0.6040   -5.7585 C.ar      1 <0>        -0.1054
      3 C3          3.3179   -0.9954   -4.4610 C.ar      1 <0>        -0.1204
      4 C4          4.2500   -0.7610   -3.4606 C.ar      1 <0>         0.1018
      5 C5          5.4491   -0.1338   -3.7661 C.ar      1 <0>        -0.1124
      6 C6          5.7122    0.2558   -5.0652 C.ar      1 <0>        -0.1049
      7 O1          3.9887   -1.1448   -2.1831 O.3       1 <0>        -0.3031
      8 C7          4.2184   -2.4295   -1.8491 C.2       1 <0>         0.6382
      9 O2          4.7457   -3.1799   -2.6467 O.2       1 <0>        -0.5422
     10 N1          3.8636   -2.8828   -0.6304 N.am      1 <0>        -0.6082
     11 C8          4.2545   -4.1735   -0.2166 C.2       1 <0>        -0.0674
     12 C9          4.7267   -4.5291    1.0639 C.2       1 <0>         0.1607
     13 N2          4.9872   -5.8209    1.0622 N.2       1 <0>        -0.2611
     14 N3          4.6926   -6.3298   -0.2088 N.pl3     1 <0>        -0.3508
     15 C10         4.2381   -5.3019   -0.9807 C.2       1 <0>         0.4012
     16 N4          3.8324   -5.3890   -2.3131 N.pl3     1 <0>        -0.8234
     17 C11         4.8355   -7.6635   -0.6150 C.ar      1 <0>         0.1550
     18 C12         3.8339   -8.2760   -1.3555 C.ar      1 <0>        -0.1464
     19 C13         3.9780   -9.5924   -1.7553 C.ar      1 <0>         0.1160
     20 C14         5.1204  -10.2991   -1.4175 C.ar      1 <0>        -0.1206
     21 C15         6.1193   -9.6917   -0.6797 C.ar      1 <0>        -0.1052
     22 C16         5.9834   -8.3739   -0.2819 C.ar      1 <0>         0.1064
     23 F1          6.9628   -7.7793    0.4339 F         1 <0>        -0.1133
     24 F2          3.0035  -10.1895   -2.4757 F         1 <0>        -0.1241
     25 C17         4.9002   -3.6083    2.2137 C.ar      1 <0>        -0.0168
     26 C18         5.3000   -2.2903    1.9999 C.ar      1 <0>        -0.0815
     27 C19         5.4600   -1.4377    3.0729 C.ar      1 <0>        -0.1085
     28 C20         5.2242   -1.8894    4.3602 C.ar      1 <0>        -0.0235
     29 C21         4.8274   -3.1977    4.5779 C.ar      1 <0>        -0.1094
     30 C22         4.6585   -4.0565    3.5111 C.ar      1 <0>        -0.0712
     31 Cl1         5.4273   -0.8117    5.7059 Cl        1 <0>        -0.0639
     32 H1          4.9910    0.3222   -7.0762 H         1 <0>         0.1301
     33 H2          2.8603   -0.7859   -6.5376 H         1 <0>         0.1319
     34 H3          2.3836   -1.4832   -4.2256 H         1 <0>         0.1283
     35 H4          6.1762    0.0501   -2.9890 H         1 <0>         0.1311
     36 H5          6.6455    0.7441   -5.3035 H         1 <0>         0.1329
     37 H6          3.3394   -2.3215   -0.0379 H         1 <0>         0.4195
     38 H7          3.9559   -6.2160   -2.8046 H         1 <0>         0.3984
     39 H8          3.4270   -4.6224   -2.7477 H         1 <0>         0.4215
     40 H9          2.9428   -7.7256   -1.6189 H         1 <0>         0.1529
     41 H10         5.2307  -11.3267   -1.7307 H         1 <0>         0.1564
     42 H11         7.0087  -10.2453   -0.4174 H         1 <0>         0.1597
     43 H12         5.4845   -1.9371    0.9961 H         1 <0>         0.1345
     44 H13         5.7701   -0.4163    2.9083 H         1 <0>         0.1398
     45 H14         4.6453   -3.5455    5.5840 H         1 <0>         0.1398
     46 H15         4.3443   -5.0756    3.6816 H         1 <0>         0.1397
@<TRIPOS>BOND
     1    1    6 ar
     2    1    2 ar
     3    1   32 1
     4    2    3 ar
     5    2   33 1
     6    3    4 ar
     7    3   34 1
     8    4    5 ar
     9    4    7 1
    10    5    6 ar
    11    5   35 1
    12    6   36 1
    13    7    8 1
    14    8    9 2
    15    8   10 am
    16   10   11 1
    17   10   37 1
    18   11   15 2
    19   11   12 1
    20   12   13 2
    21   12   25 1
    22   13   14 1
    23   14   15 1
    24   14   17 1
    25   15   16 1
    26   16   38 1
    27   16   39 1
    28   17   22 ar
    29   17   18 ar
    30   18   19 ar
    31   18   40 1
    32   19   20 ar
    33   19   24 1
    34   20   21 ar
    35   20   41 1
    36   21   22 ar
    37   21   42 1
    38   22   23 1
    39   25   30 ar
    40   25   26 ar
    41   26   27 ar
    42   26   43 1
    43   27   28 ar
    44   27   44 1
    45   28   29 ar
    46   28   31 1
    47   29   30 ar
    48   29   45 1
    49   30   46 1
@<TRIPOS>MOLECULE
ZINC16220331
   53    56     0     0     0
SMALL
USER_CHARGES

@<TRIPOS>ATOM
      1 C1         -0.7570    1.8305    0.1512 C.3       1 <0>        -0.1268
      2 C2         -0.3327    0.3850    0.1121 C.ar      1 <0>        -0.0292
      3 C3         -0.3477   -0.3079   -1.0828 C.ar      1 <0>        -0.1376
      4 C4          0.0414   -1.6341   -1.1195 C.ar      1 <0>        -0.0058
      5 C5          0.4468   -2.2713    0.0391 C.ar      1 <0>        -0.6785
      6 C6          0.4641   -1.5843    1.2369 C.ar      1 <0>         0.0354
      7 C7          0.0792   -0.2502    1.2762 C.ar      1 <0>         0.0985
      8 N1          0.1016    0.4504    2.4868 N.pl3     1 <0>        -0.6316
      9 C8         -0.3587   -0.1326    3.6114 C.2       1 <0>         0.5467
     10 S1         -0.8501   -1.7724    3.5860 S.2       1 <0>        -0.5927
     11 N2         -0.4322    0.5753    4.7559 N.pl3     1 <0>        -0.6689
     12 C9         -0.9325   -0.0584    5.9783 C.3       1 <0>         0.1388
     13 H1         -0.6397   -1.1079    6.0085 H         1 <0>         0.1223
     14 C10        -2.4702    0.0747    6.0638 C.3       1 <0>        -0.1227
     15 C11        -2.7232    0.8942    7.3659 C.3       1 <0>        -0.1034
     16 H2         -3.6939    1.3845    7.4393 H         1 <0>         0.1010
     17 C12        -2.3674   -0.0899    8.5219 C.3       1 <0>        -0.1245
     18 C13        -0.8308   -0.2410    8.4475 C.3       1 <0>        -0.1162
     19 C14        -0.3987    0.6913    7.2369 C.3       1 <0>        -0.1124
     20 H3          0.6481    0.9934    7.2033 H         1 <0>         0.1050
     21 C15        -1.4684    1.8371    7.3636 C.3       1 <0>        -0.1268
     22 S2          0.9411   -3.9617   -0.0130 S.o2      1 <0>         2.6877
     23 O1          0.8647   -4.4485    1.3198 O.2       1 <0>        -0.9330
     24 O2          0.2265   -4.5610   -1.0851 O.2       1 <0>        -0.9465
     25 N3          2.5418   -3.9909   -0.4364 N.pl3     1 <0>        -1.0579
     26 C16         2.9389   -3.5423   -1.6989 C.ar      1 <0>         0.1494
     27 C17         2.2407   -3.9427   -2.8309 C.ar      1 <0>        -0.1405
     28 C18         2.6351   -3.4974   -4.0773 C.ar      1 <0>        -0.0859
     29 C19         3.7250   -2.6535   -4.1991 C.ar      1 <0>        -0.0444
     30 C20         4.4225   -2.2530   -3.0730 C.ar      1 <0>        -0.0923
     31 C21         4.0290   -2.6906   -1.8235 C.ar      1 <0>        -0.1172
     32 Cl1         4.2186   -2.0966   -5.7675 Cl        1 <0>        -0.0660
     33 H4          0.1092    2.4683   -0.0242 H         1 <0>         0.0813
     34 H5         -1.5037    2.0110   -0.6220 H         1 <0>         0.0820
     35 H6         -1.1836    2.0576    1.1283 H         1 <0>         0.0659
     36 H7         -0.6641    0.1868   -1.9892 H         1 <0>         0.1387
     37 H8          0.0284   -2.1737   -2.0549 H         1 <0>         0.1402
     38 H9          0.7807   -2.0825    2.1413 H         1 <0>         0.1733
     39 H10         0.4483    1.3558    2.5168 H         1 <0>         0.4077
     40 H11        -0.1537    1.5044    4.7702 H         1 <0>         0.3973
     41 H12        -2.8539    0.6116    5.1963 H         1 <0>         0.0666
     42 H13        -2.9332   -0.9093    6.1381 H         1 <0>         0.0845
     43 H14        -2.6618    0.3309    9.4833 H         1 <0>         0.0663
     44 H15        -2.8520   -1.0533    8.3634 H         1 <0>         0.0709
     45 H16        -0.3697    0.1056    9.3724 H         1 <0>         0.0711
     46 H17        -0.5600   -1.2786    8.2525 H         1 <0>         0.0729
     47 H18        -1.4588    2.5026    6.5005 H         1 <0>         0.0650
     48 H19        -1.3688    2.3873    8.2993 H         1 <0>         0.0762
     49 H20         3.2038   -4.3194    0.1919 H         1 <0>         0.4293
     50 H21         1.3905   -4.6019   -2.7365 H         1 <0>         0.1674
     51 H22         2.0926   -3.8084   -4.9579 H         1 <0>         0.1425
     52 H23         5.2727   -1.5943   -3.1709 H         1 <0>         0.1388
     53 H24         4.5710   -2.3742   -0.9446 H         1 <0>         0.1382
@<TRIPOS>BOND
     1    1    2 1
     2    1   33 1
     3    1   34 1
     4    1   35 1
     5    2    7 ar
     6    2    3 ar
     7    3    4 ar
     8    3   36 1
     9    4    5 ar
    10    4   37 1
    11    5    6 ar
    12    5   22 1
    13    6    7 ar
    14    6   38 1
    15    7    8 1
    16    8    9 1
    17    8   39 1
    18    9   10 2
    19    9   11 1
    20   11   12 1
    21   11   40 1
    22   12   13 1
    23   12   19 1
    24   12   14 1
    25   14   15 1
    26   14   41 1
    27   14   42 1
    28   15   16 1
    29   15   21 1
    30   15   17 1
    31   17   18 1
    32   17   43 1
    33   17   44 1
    34   18   19 1
    35   18   45 1
    36   18   46 1
    37   19   20 1
    38   19   21 1
    39   21   47 1
    40   21   48 1
    41   22   23 2
    42   22   24 2
    43   22   25 1
    44   25   26 1
    45   25   49 1
    46   26   31 ar
    47   26   27 ar
    48   27   28 ar
    49   27   50 1
    50   28   29 ar
    51   28   51 1
    52   29   30 ar
    53   29   32 1
    54   30   31 ar
    55   30   52 1
    56   31   53 1
@<TRIPOS>MOLECULE
ZINC02411007
   45    49     0     0     0
SMALL
USER_CHARGES
(4-chlorophenyl)sulfonyl-(2-thienylmethyleneamino)BLAHamine
@<TRIPOS>ATOM
      1 C1          4.6954    0.0991   -0.0399 C.ar      1 <0>        -0.1000
      2 C2          4.6732    1.4929   -0.0319 C.ar      1 <0>        -0.0995
      3 C3          3.4956    2.1739   -0.0180 C.ar      1 <0>        -0.0845
      4 C4          2.2783    1.4682   -0.0106 C.ar      1 <0>         0.0963
      5 C5          2.3007    0.0504   -0.0188 C.ar      1 <0>         0.0936
      6 C6          3.5398   -0.6182   -0.0336 C.ar      1 <0>        -0.0810
      7 N1          1.1591   -0.6462   -0.0121 N.ar      1 <0>        -0.4066
      8 C7          0.0021   -0.0041    0.0020 C.ar      1 <0>         0.2077
      9 C8         -1.3539   -0.4114    0.0128 C.2       1 <0>        -0.8149
     10 C9         -2.1268    0.7006    0.0261 C.2       1 <0>         0.5590
     11 N2         -1.3480    1.8325    0.0303 N.pl3     1 <0>        -0.3595
     12 C10        -0.0178    1.4645    0.0101 C.ar      1 <0>         0.2862
     13 N3          1.1148    2.1310    0.0029 N.ar      1 <0>        -0.4317
     14 N4         -1.8271    3.1489    0.0438 N.2       1 <0>        -0.2651
     15 C11        -2.0654    3.7658   -1.0761 C.2       1 <0>         0.2469
     16 C12        -2.5669    5.1438   -1.0619 C.2       1 <0>        -0.1825
     17 C13        -2.8806    5.9693   -2.1277 C.2       1 <0>        -0.0763
     18 C14        -3.3391    7.2379   -1.8589 C.2       1 <0>        -0.1754
     19 C15        -3.4691    7.6383   -0.5671 C.2       1 <0>        -0.1458
     20 S1         -2.9398    6.1917    0.3347 S.3       1 <0>         0.1344
     21 N5         -3.5108    0.6973    0.0400 N.pl3     1 <0>        -0.8229
     22 S2         -1.9345   -2.0750    0.0088 S.o2      1 <0>         2.6219
     23 O1         -3.2494   -2.0449   -0.5292 O.2       1 <0>        -0.9507
     24 O2         -0.8979   -2.8656   -0.5565 O.2       1 <0>        -0.9115
     25 C16        -2.0900   -2.5765    1.6908 C.ar      1 <0>        -0.6595
     26 C17        -1.0223   -3.1728    2.3355 C.ar      1 <0>         0.0004
     27 C18        -1.1418   -3.5612    3.6565 C.ar      1 <0>        -0.1302
     28 C19        -2.3339   -3.3635    4.3303 C.ar      1 <0>         0.0167
     29 C20        -3.4039   -2.7718    3.6829 C.ar      1 <0>        -0.1318
     30 C21        -3.2814   -2.3786    2.3635 C.ar      1 <0>        -0.0133
     31 Cl1        -2.4869   -3.8570    5.9876 Cl        1 <0>        -0.0533
     32 H1          5.6433   -0.4183   -0.0516 H         1 <0>         0.1371
     33 H2          5.6044    2.0400   -0.0371 H         1 <0>         0.1361
     34 H3          3.4951    3.2539   -0.0119 H         1 <0>         0.1372
     35 H4          3.5726   -1.6977   -0.0403 H         1 <0>         0.1439
     36 H5         -1.8939    3.2632   -2.0165 H         1 <0>         0.1437
     37 H6         -2.7683    5.6257   -3.1454 H         1 <0>         0.1456
     38 H7         -3.5929    7.9088   -2.6663 H         1 <0>         0.1457
     39 H8         -3.8106    8.5884   -0.1835 H         1 <0>         0.1951
     40 H9         -3.9938   -0.1439    0.0406 H         1 <0>         0.4386
     41 H10        -3.9977    1.5361    0.0491 H         1 <0>         0.4151
     42 H11        -0.0932   -3.3311    1.8081 H         1 <0>         0.1562
     43 H12        -0.3062   -4.0231    4.1614 H         1 <0>         0.1463
     44 H13        -4.3346   -2.6168    4.2084 H         1 <0>         0.1453
     45 H14        -4.1164   -1.9164    1.8581 H         1 <0>         0.1469
@<TRIPOS>BOND
     1    1    6 ar
     2    1    2 ar
     3    1   32 1
     4    2    3 ar
     5    2   33 1
     6    3    4 ar
     7    3   34 1
     8    4   13 ar
     9    4    5 ar
    10    5    6 ar
    11    5    7 ar
    12    6   35 1
    13    7    8 ar
    14    8   12 ar
    15    8    9 1
    16    9   10 2
    17    9   22 1
    18   10   11 1
    19   10   21 1
    20   11   12 1
    21   11   14 1
    22   12   13 ar
    23   14   15 2
    24   15   16 1
    25   15   36 1
    26   16   20 1
    27   16   17 2
    28   17   18 1
    29   17   37 1
    30   18   19 2
    31   18   38 1
    32   19   20 1
    33   19   39 1
    34   21   40 1
    35   21   41 1
    36   22   23 2
    37   22   24 2
    38   22   25 1
    39   25   30 ar
    40   25   26 ar
    41   26   27 ar
    42   26   42 1
    43   27   28 ar
    44   27   43 1
    45   28   29 ar
    46   28   31 1
    47   29   30 ar
    48   29   44 1
    49   30   45 1
@<TRIPOS>MOLECULE
ZINC16125287
   55    58     0     0     0
SMALL
USER_CHARGES
(2S)-1-[2-[1-(2,5-dimethylphenyl)imidazol-2-yl]sulfanylacetyl]-2-methyl-indoline-5-sulfonamide
@<TRIPOS>ATOM
      1 C1          1.9379    2.5096  -10.8644 C.3       1 <0>        -0.1160
      2 C2          1.0233    1.7004   -9.9813 C.ar      1 <0>        -0.0796
      3 C3          1.1262    0.3214   -9.9594 C.ar      1 <0>        -0.0999
      4 C4          0.2894   -0.4242   -9.1498 C.ar      1 <0>        -0.1044
      5 C5         -0.6522    0.2067   -8.3601 C.ar      1 <0>        -0.0676
      6 C6         -0.7582    1.5906   -8.3803 C.ar      1 <0>         0.1002
      7 C7          0.0797    2.3363   -9.1987 C.ar      1 <0>        -0.0988
      8 N1         -1.7132    2.2337   -7.5804 N.pl3     1 <0>        -0.3941
      9 C8         -2.7961    2.9637   -8.0218 C.2       1 <0>        -0.0328
     10 C9         -3.4451    3.4013   -6.9293 C.2       1 <0>        -0.0121
     11 N2         -2.7934    2.9560   -5.8418 N.2       1 <0>        -0.4857
     12 C10        -1.7476    2.2569   -6.2172 C.2       1 <0>         0.1768
     13 S1         -0.5900    1.4754   -5.1429 S.3       1 <0>         0.0729
     14 C11        -1.2842    1.9441   -3.5384 C.3       1 <0>        -0.1564
     15 C12        -0.4329    1.3695   -2.4356 C.2       1 <0>         0.5483
     16 O1          0.5467    0.7081   -2.7077 O.2       1 <0>        -0.4873
     17 N3         -0.7602    1.5904   -1.1470 N.am      1 <0>        -0.5457
     18 C13        -1.8636    2.3354   -0.7129 C.ar      1 <0>         0.2007
     19 C14        -2.8382    2.9933   -1.4659 C.ar      1 <0>        -0.1813
     20 C15        -3.8544    3.6815   -0.8385 C.ar      1 <0>         0.0220
     21 C16        -3.9161    3.7256    0.5424 C.ar      1 <0>        -0.7002
     22 C17        -2.9550    3.0769    1.2947 C.ar      1 <0>         0.0268
     23 C18        -1.9345    2.3856    0.6700 C.ar      1 <0>        -0.1514
     24 C19        -0.7736    1.6021    1.2401 C.3       1 <0>        -0.0849
     25 C20        -0.0127    1.0858    0.0080 C.3       1 <0>         0.1325
     26 H1          0.0021   -0.0041    0.0020 H         1 <0>         0.0992
     27 C21         1.4152    1.6352   -0.0027 C.3       1 <0>        -0.1662
     28 S2         -5.2164    4.6070    1.3407 S.o2      1 <0>         2.7054
     29 O2         -6.2931    4.6685    0.4155 O.2       1 <0>        -0.9608
     30 O3         -5.3563    4.0393    2.6359 O.2       1 <0>        -0.9603
     31 N4         -4.6912    6.1621    1.5599 N.pl3     1 <0>        -1.2483
     32 C22        -1.5639   -0.6067   -7.4780 C.3       1 <0>        -0.1298
     33 H2          1.4754    2.6415  -11.8425 H         1 <0>         0.0748
     34 H3          2.1121    3.4850  -10.4102 H         1 <0>         0.0688
     35 H4          2.8878    1.9874  -10.9791 H         1 <0>         0.0722
     36 H5          1.8619   -0.1740  -10.5756 H         1 <0>         0.1323
     37 H6          0.3723   -1.5009   -9.1345 H         1 <0>         0.1354
     38 H7         -0.0032    3.4129   -9.2196 H         1 <0>         0.1298
     39 H8         -3.0706    3.1488   -9.0498 H         1 <0>         0.1805
     40 H9         -4.3406    4.0051   -6.9260 H         1 <0>         0.1793
     41 H10        -2.2990    1.5555   -3.4541 H         1 <0>         0.1346
     42 H11        -1.3031    3.0307   -3.4541 H         1 <0>         0.1336
     43 H12        -2.7955    2.9630   -2.5447 H         1 <0>         0.1503
     44 H13        -4.6051    4.1878   -1.4272 H         1 <0>         0.1520
     45 H14        -3.0015    3.1106    2.3732 H         1 <0>         0.1486
     46 H15        -1.1363    0.7676    1.8402 H         1 <0>         0.0999
     47 H16        -0.1330    2.2497    1.8388 H         1 <0>         0.1011
     48 H17         1.9434    1.2915    0.8867 H         1 <0>         0.0793
     49 H18         1.9342    1.2807   -0.8932 H         1 <0>         0.0764
     50 H19         1.3853    2.7248   -0.0091 H         1 <0>         0.0619
     51 H20        -5.3287    6.8932    1.5649 H         1 <0>         0.4222
     52 H21        -3.7460    6.3420    1.6832 H         1 <0>         0.4171
     53 H22        -2.4671   -0.8664   -8.0301 H         1 <0>         0.0736
     54 H23        -1.0523   -1.5183   -7.1691 H         1 <0>         0.0777
     55 H24        -1.8317   -0.0239   -6.5966 H         1 <0>         0.0772
@<TRIPOS>BOND
     1    1    2 1
     2    1   33 1
     3    1   34 1
     4    1   35 1
     5    2    7 ar
     6    2    3 ar
     7    3    4 ar
     8    3   36 1
     9    4    5 ar
    10    4   37 1
    11    5    6 ar
    12    5   32 1
    13    6    7 ar
    14    6    8 1
    15    7   38 1
    16    8   12 1
    17    8    9 1
    18    9   10 2
    19    9   39 1
    20   10   11 1
    21   10   40 1
    22   11   12 2
    23   12   13 1
    24   13   14 1
    25   14   15 1
    26   14   41 1
    27   14   42 1
    28   15   16 2
    29   15   17 am
    30   17   25 1
    31   17   18 1
    32   18   23 ar
    33   18   19 ar
    34   19   20 ar
    35   19   43 1
    36   20   21 ar
    37   20   44 1
    38   21   22 ar
    39   21   28 1
    40   22   23 ar
    41   22   45 1
    42   23   24 1
    43   24   25 1
    44   24   46 1
    45   24   47 1
    46   25   26 1
    47   25   27 1
    48   27   48 1
    49   27   49 1
    50   27   50 1
    51   28   29 2
    52   28   30 2
    53   28   31 1
    54   31   51 1
    55   31   52 1
    56   32   53 1
    57   32   54 1
    58   32   55 1
@<TRIPOS>MOLECULE
ZINC33106832
   56    59     0     0     0
SMALL
USER_CHARGES
5-[(3S)-1-[(2,5-dimethylphenyl)carbamoyl]-3-piperidyl]-N-(4-fluorophenyl)-1,3,4-thiadiazole-2-carboxamide
@<TRIPOS>ATOM
      1 C1         -7.6401    5.3705   -1.4131 C.3       1 <0>        -0.1160
      2 C2         -7.3272    4.5804   -0.1686 C.ar      1 <0>        -0.0701
      3 C3         -8.2533    4.5100    0.8561 C.ar      1 <0>        -0.1379
      4 C4         -7.9698    3.7865    1.9997 C.ar      1 <0>        -0.0963
      5 C5         -6.7624    3.1261    2.1193 C.ar      1 <0>        -0.1282
      6 C6         -5.8284    3.1991    1.0946 C.ar      1 <0>         0.1708
      7 C7         -6.1161    3.9271   -0.0527 C.ar      1 <0>        -0.1342
      8 N1         -4.6019    2.5360    1.2151 N.am      1 <0>        -0.6947
      9 C8         -3.9303    2.1553    0.1104 C.2       1 <0>         0.7114
     10 O1         -4.3531    2.4515   -0.9904 O.2       1 <0>        -0.5646
     11 N2         -2.7898    1.4464    0.2260 N.am      1 <0>        -0.6233
     12 C9         -2.1083    0.9252   -0.9668 C.3       1 <0>         0.1215
     13 C10        -0.6489    1.3905   -0.9436 C.3       1 <0>        -0.1339
     14 C11        -0.0056    0.9730    0.3808 C.3       1 <0>        -0.1100
     15 C12        -0.7447    1.6421    1.5419 C.3       1 <0>        -0.0089
     16 H1         -0.6964    2.7360    1.4368 H         1 <0>         0.1102
     17 C13        -2.2048    1.1796    1.5471 C.3       1 <0>         0.1237
     18 C14        -0.0907    1.2561    2.8436 C.2       1 <0>         0.0499
     19 N3          0.0782    0.0585    3.3768 N.2       1 <0>        -0.2783
     20 N4          0.6528   -0.1043    4.4889 N.2       1 <0>        -0.2183
     21 C15         1.1121    0.9445    5.1660 C.2       1 <0>        -0.0244
     22 S1          0.6538    2.2646    4.0490 S.3       1 <0>         0.1539
     23 C16         1.8058    1.0021    6.4638 C.2       1 <0>         0.6201
     24 O2          2.1507    2.0747    6.9220 O.2       1 <0>        -0.4984
     25 N5          2.0586   -0.1337    7.1438 N.am      1 <0>        -0.6576
     26 C17         2.8011   -0.0892    8.3290 C.ar      1 <0>         0.1330
     27 C18         3.6602   -1.1318    8.6509 C.ar      1 <0>        -0.1075
     28 C19         4.3961   -1.0833    9.8186 C.ar      1 <0>        -0.1338
     29 C20         4.2700   -0.0009   10.6732 C.ar      1 <0>         0.0895
     30 C21         3.4098    1.0371   10.3569 C.ar      1 <0>        -0.1338
     31 C22         2.6759    0.9951    9.1877 C.ar      1 <0>        -0.0922
     32 F1          4.9870    0.0421   11.8174 F         1 <0>        -0.1371
     33 C23        -6.4569    2.3322    3.3633 C.3       1 <0>        -0.1100
     34 H2         -8.6420    5.8156   -1.3226 H         1 <0>         0.0653
     35 H3         -7.6128    4.7035   -2.2874 H         1 <0>         0.0711
     36 H4         -6.8940    6.1691   -1.5377 H         1 <0>         0.0694
     37 H5         -9.1999    5.0215    0.7629 H         1 <0>         0.1214
     38 H6         -8.6951    3.7335    2.7981 H         1 <0>         0.1246
     39 H7         -5.3935    3.9819   -0.8535 H         1 <0>         0.1546
     40 H8         -4.1860    2.3255    2.2115 H         1 <0>         0.4226
     41 H9         -2.1494   -0.1740   -0.9616 H         1 <0>         0.0740
     42 H10        -2.6070    1.3065   -1.8701 H         1 <0>         0.1029
     43 H11        -0.1034    0.9284   -1.7796 H         1 <0>         0.0898
     44 H12        -0.6115    2.4855   -1.0420 H         1 <0>         0.0736
     45 H13        -0.0663   -0.1199    0.4894 H         1 <0>         0.0849
     46 H14         1.0494    1.2844    0.3903 H         1 <0>         0.0758
     47 H15        -2.7677    1.7300    2.3153 H         1 <0>         0.0788
     48 H16        -2.2538    0.1013    1.7588 H         1 <0>         0.0931
     49 H17         1.6812   -1.0958    6.7671 H         1 <0>         0.4517
     50 H18         3.7554   -1.9782    7.9869 H         1 <0>         0.1402
     51 H19         5.0674   -1.8919   10.0674 H         1 <0>         0.1427
     52 H20         3.3124    1.8799   11.0251 H         1 <0>         0.1416
     53 H21         2.0048    1.8047    8.9415 H         1 <0>         0.1490
     54 H22        -5.4571    1.8822    3.2748 H         1 <0>         0.0528
     55 H23        -7.2074    1.5372    3.4844 H         1 <0>         0.0737
     56 H24        -6.4832    2.9978    4.2387 H         1 <0>         0.0719
@<TRIPOS>BOND
     1    1    2 1
     2    1   34 1
     3    1   35 1
     4    1   36 1
     5    2    7 ar
     6    2    3 ar
     7    3    4 ar
     8    3   37 1
     9    4    5 ar
    10    4   38 1
    11    5    6 ar
    12    5   33 1
    13    6    7 ar
    14    6    8 1
    15    7   39 1
    16    8    9 am
    17    8   40 1
    18    9   10 2
    19    9   11 am
    20   11   17 1
    21   11   12 1
    22   12   13 1
    23   12   41 1
    24   12   42 1
    25   13   14 1
    26   13   43 1
    27   13   44 1
    28   14   15 1
    29   14   45 1
    30   14   46 1
    31   15   16 1
    32   15   17 1
    33   15   18 1
    34   17   47 1
    35   17   48 1
    36   18   22 1
    37   18   19 2
    38   19   20 1
    39   20   21 2
    40   21   22 1
    41   21   23 1
    42   23   24 2
    43   23   25 am
    44   25   26 1
    45   25   49 1
    46   26   31 ar
    47   26   27 ar
    48   27   28 ar
    49   27   50 1
    50   28   29 ar
    51   28   51 1
    52   29   30 ar
    53   29   32 1
    54   30   31 ar
    55   30   52 1
    56   31   53 1
    57   33   54 1
    58   33   55 1
    59   33   56 1
@<TRIPOS>MOLECULE
ZINC39555278
   50    53     0     0     0
SMALL
USER_CHARGES

@<TRIPOS>ATOM
      1 C1         -0.0535    1.3409   -0.0441 C.ar      1 <0>        -0.1363
      2 C2          1.1310    2.0537   -0.0567 C.ar      1 <0>        -0.0173
      3 C3          2.3402    1.3845   -0.0674 C.ar      1 <0>        -0.2020
      4 C4          2.3653    0.0021   -0.0650 C.ar      1 <0>         0.0294
      5 C5          1.1812   -0.7105   -0.0516 C.ar      1 <0>        -0.6821
      6 C6         -0.0285   -0.0411   -0.0423 C.ar      1 <0>         0.0097
      7 S1          1.2131   -2.4722   -0.0497 S.o2      1 <0>         2.6905
      8 O1         -0.0304   -2.9015   -0.5868 O.2       1 <0>        -0.9455
      9 O2          2.4597   -2.8564   -0.6134 O.2       1 <0>        -0.9435
     10 N1          1.2389   -2.9598    1.5326 N.pl3     1 <0>        -0.9971
     11 C7          2.5144   -3.1515    2.2363 C.3       1 <0>         0.1148
     12 C8          2.5376   -4.5590    2.8404 C.3       1 <0>        -0.1128
     13 C9          1.2997   -4.7533    3.7190 C.3       1 <0>        -0.1041
     14 C10         0.0382   -4.6155    2.8636 C.3       1 <0>        -0.1253
     15 C11        -0.0135   -3.2032    2.2614 C.3       1 <0>         0.1180
     16 C12         1.3365   -6.1249    4.3421 C.2       1 <0>         0.5177
     17 O3          2.2616   -6.8733    4.1068 O.2       1 <0>        -0.5085
     18 N2          0.3416   -6.5200    5.1610 N.am      1 <0>        -0.6705
     19 C13         0.3149   -7.8322    5.6474 C.ar      1 <0>         0.1210
     20 C14         0.9433   -8.8459    4.9482 C.ar      1 <0>        -0.0819
     21 C15         0.9204  -10.1501    5.4245 C.ar      1 <0>        -0.1344
     22 C16         0.2796  -10.4563    6.5892 C.ar      1 <0>        -0.0563
     23 C17        -0.3657   -9.4487    7.3194 C.ar      1 <0>        -0.1603
     24 C18        -0.3423   -8.1246    6.8460 C.ar      1 <0>         0.1057
     25 N3         -1.0378   -7.3698    7.7562 N.pl3     1 <0>        -0.5075
     26 H1         -1.1973   -6.4146    7.7008 H         1 <0>         0.4381
     27 N4         -1.4780   -8.2190    8.7789 N.2       1 <0>        -0.2476
     28 C19        -1.0992   -9.4392    8.5307 C.2       1 <0>         0.0773
     29 C20         3.6314    2.1615   -0.0821 C.3       1 <0>         0.5101
     30 F1          3.3508    3.5321   -0.0823 F         1 <0>        -0.1739
     31 F2          4.3824    1.8394    1.0534 F         1 <0>        -0.1728
     32 F3          4.3595    1.8344   -1.2310 F         1 <0>        -0.1711
     33 H2         -0.9984    1.8638   -0.0312 H         1 <0>         0.1488
     34 H3          1.1114    3.1335   -0.0585 H         1 <0>         0.1494
     35 H4          3.3102   -0.5208   -0.0741 H         1 <0>         0.1515
     36 H5         -0.9538   -0.5979   -0.0325 H         1 <0>         0.1510
     37 H6          3.3398   -3.0420    1.5328 H         1 <0>         0.1016
     38 H7          2.6081   -2.4112    3.0308 H         1 <0>         0.0762
     39 H8          2.5351   -5.2986    2.0397 H         1 <0>         0.0819
     40 H9          3.4360   -4.6804    3.4456 H         1 <0>         0.0900
     41 H10         1.2900   -3.9978    4.5047 H         1 <0>         0.1050
     42 H11         0.0593   -5.3546    2.0627 H         1 <0>         0.0817
     43 H12        -0.8424   -4.7771    3.4853 H         1 <0>         0.0823
     44 H13        -0.1216   -2.4671    3.0580 H         1 <0>         0.0775
     45 H14        -0.8565   -3.1279    1.5746 H         1 <0>         0.1014
     46 H15        -0.3560   -5.8950    5.4132 H         1 <0>         0.4062
     47 H16         1.4555   -8.6218    4.0242 H         1 <0>         0.1530
     48 H17         1.4154  -10.9310    4.8663 H         1 <0>         0.1325
     49 H18         0.2691  -11.4748    6.9484 H         1 <0>         0.1318
     50 H19        -1.3003  -10.2996    9.1518 H         1 <0>         0.1968
@<TRIPOS>BOND
     1    1    6 ar
     2    1    2 ar
     3    1   33 1
     4    2    3 ar
     5    2   34 1
     6    3    4 ar
     7    3   29 1
     8    4    5 ar
     9    4   35 1
    10    5    6 ar
    11    5    7 1
    12    6   36 1
    13    7    8 2
    14    7    9 2
    15    7   10 1
    16   10   15 1
    17   10   11 1
    18   11   12 1
    19   11   37 1
    20   11   38 1
    21   12   13 1
    22   12   39 1
    23   12   40 1
    24   13   14 1
    25   13   16 1
    26   13   41 1
    27   14   15 1
    28   14   42 1
    29   14   43 1
    30   15   44 1
    31   15   45 1
    32   16   17 2
    33   16   18 am
    34   18   19 1
    35   18   46 1
    36   19   24 ar
    37   19   20 ar
    38   20   21 ar
    39   20   47 1
    40   21   22 ar
    41   21   48 1
    42   22   23 ar
    43   22   49 1
    44   23   28 1
    45   23   24 ar
    46   24   25 1
    47   25   26 1
    48   25   27 1
    49   27   28 2
    50   28   50 1
    51   29   30 1
    52   29   31 1
    53   29   32 1
@<TRIPOS>MOLECULE
ZINC03012268
   54    58     0     0     0
SMALL
USER_CHARGES

@<TRIPOS>ATOM
      1 C1          0.0244    1.5032    0.0055 C.3       1 <0>        -0.1140
      2 C2          0.0335   -0.0037   -0.0015 C.ar      1 <0>        -0.0941
      3 C3          0.6315   -0.6853   -1.0458 C.ar      1 <0>        -0.1087
      4 C4          0.6416   -2.0661   -1.0553 C.ar      1 <0>        -0.1110
      5 C5          0.0505   -2.7706   -0.0142 C.ar      1 <0>         0.1341
      6 C6         -0.5487   -2.0832    1.0332 C.ar      1 <0>        -0.1020
      7 C7         -0.5511   -0.7019    1.0389 C.ar      1 <0>        -0.1046
      8 C8         -1.1915   -2.8434    2.1645 C.3       1 <0>        -0.1175
      9 N1          0.0586   -4.1691   -0.0209 N.am      1 <0>        -0.6561
     10 C9         -0.0404   -4.8379   -1.1868 C.2       1 <0>         0.6031
     11 O1         -0.0542   -4.2278   -2.2384 O.2       1 <0>        -0.5012
     12 C10        -0.1321   -6.3120   -1.1871 C.2       1 <0>         0.0660
     13 C11        -0.2340   -7.1365   -2.3306 C.2       1 <0>        -0.2614
     14 C12        -0.2940   -8.4143   -1.9070 C.2       1 <0>         0.3651
     15 N2         -0.2355   -8.4134   -0.5421 N.pl3     1 <0>        -0.3940
     16 N3         -0.1275   -7.0895   -0.1184 N.2       1 <0>        -0.2497
     17 C13        -0.2794   -9.6298    0.2744 C.3       1 <0>         0.1254
     18 H1          0.7298   -9.8943    0.5900 H         1 <0>         0.1365
     19 C14        -0.8702  -10.7690   -0.5640 C.3       1 <0>        -0.1497
     20 C15        -0.1526  -10.8486   -1.9159 C.3       1 <0>         0.2043
     21 H2         -0.5425  -11.6902   -2.4883 H         1 <0>         0.1252
     22 N4         -0.3968   -9.5926   -2.6520 N.pl3     1 <0>        -0.7214
     23 C16         1.3269  -11.0298   -1.6937 C.ar      1 <0>        -0.1110
     24 C17         2.1150   -9.9399   -1.3739 C.ar      1 <0>        -0.1047
     25 C18         3.4725  -10.1011   -1.1686 C.ar      1 <0>        -0.0952
     26 C19         4.0468  -11.3567   -1.2835 C.ar      1 <0>         0.0424
     27 C20         3.2529  -12.4547   -1.6057 C.ar      1 <0>         0.0359
     28 C21         1.8921  -12.2865   -1.8043 C.ar      1 <0>        -0.0835
     29 O2          4.0450  -13.5651   -1.6587 O.3       1 <0>        -0.3059
     30 C22         5.3929  -13.0710   -1.7683 C.3       1 <0>         0.2127
     31 O3          5.3362  -11.7792   -1.1347 O.3       1 <0>        -0.3062
     32 C23        -1.1549   -9.3891    1.5058 C.3       1 <0>         0.4555
     33 F1         -2.4509   -9.0551    1.0985 F         1 <0>        -0.1720
     34 F2         -1.1954  -10.5512    2.2836 F         1 <0>        -0.1713
     35 F3         -0.6189   -8.3407    2.2614 F         1 <0>        -0.1602
     36 H3          0.9173    1.8696    0.5121 H         1 <0>         0.0700
     37 H4          0.0119    1.8713   -1.0204 H         1 <0>         0.0665
     38 H5         -0.8626    1.8588    0.5299 H         1 <0>         0.0656
     39 H6          1.0908   -0.1370   -1.8550 H         1 <0>         0.1256
     40 H7          1.1081   -2.5977   -1.8715 H         1 <0>         0.1405
     41 H8         -1.0137   -0.1667    1.8550 H         1 <0>         0.1259
     42 H9         -0.4537   -3.0240    2.9463 H         1 <0>         0.0725
     43 H10        -2.0170   -2.2596    2.5718 H         1 <0>         0.0721
     44 H11        -1.5687   -3.7965    1.7938 H         1 <0>         0.0650
     45 H12         0.1354   -4.6577    0.8135 H         1 <0>         0.4177
     46 H13        -0.2595   -6.8029   -3.3574 H         1 <0>         0.1654
     47 H14        -0.7458  -11.7121   -0.0320 H         1 <0>         0.1238
     48 H15        -1.9319  -10.5847   -0.7280 H         1 <0>         0.1062
     49 H16        -0.6164   -9.5854   -3.5967 H         1 <0>         0.4303
     50 H17         1.6692   -8.9602   -1.2847 H         1 <0>         0.1391
     51 H18         4.0857   -9.2479   -0.9190 H         1 <0>         0.1380
     52 H19         1.2733  -13.1370   -2.0498 H         1 <0>         0.1416
     53 H20         6.0853  -13.7266   -1.2401 H         1 <0>         0.1356
     54 H21         5.6807  -12.9719   -2.8149 H         1 <0>         0.0879
@<TRIPOS>BOND
     1    1    2 1
     2    1   36 1
     3    1   37 1
     4    1   38 1
     5    2    7 ar
     6    2    3 ar
     7    3    4 ar
     8    3   39 1
     9    4    5 ar
    10    4   40 1
    11    5    6 ar
    12    5    9 1
    13    6    7 ar
    14    6    8 1
    15    7   41 1
    16    8   42 1
    17    8   43 1
    18    8   44 1
    19    9   10 am
    20    9   45 1
    21   10   11 2
    22   10   12 1
    23   12   16 2
    24   12   13 1
    25   13   14 2
    26   13   46 1
    27   14   22 1
    28   14   15 1
    29   15   16 1
    30   15   17 1
    31   17   18 1
    32   17   19 1
    33   17   32 1
    34   19   20 1
    35   19   47 1
    36   19   48 1
    37   20   21 1
    38   20   22 1
    39   20   23 1
    40   22   49 1
    41   23   28 ar
    42   23   24 ar
    43   24   25 ar
    44   24   50 1
    45   25   26 ar
    46   25   51 1
    47   26   31 1
    48   26   27 ar
    49   27   28 ar
    50   27   29 1
    51   28   52 1
    52   29   30 1
    53   30   31 1
    54   30   53 1
    55   30   54 1
    56   32   33 1
    57   32   34 1
    58   32   35 1
@<TRIPOS>MOLECULE
ZINC08965983
   52    55     0     0     0
SMALL
USER_CHARGES
3-(3,4-difluorophenyl)sulfonylamino-N-[2-(2-oxopyrrolidin-1-yl)phenyl]-benzamide
@<TRIPOS>ATOM
      1 C1         -4.2907    4.6778   -0.6733 C.ar      1 <0>        -0.0898
      2 C2         -4.2698    5.9740   -0.1913 C.ar      1 <0>        -0.1279
      3 C3         -3.1098    6.4962    0.3488 C.ar      1 <0>        -0.0884
      4 C4         -1.9635    5.7180    0.4141 C.ar      1 <0>         0.1091
      5 C5         -1.9829    4.4129   -0.0771 C.ar      1 <0>         0.1579
      6 C6         -3.1518    3.8970   -0.6176 C.ar      1 <0>        -0.1257
      7 N1         -0.8280    3.6239   -0.0196 N.am      1 <0>        -0.6608
      8 C7         -0.9299    2.2800   -0.0075 C.2       1 <0>         0.5614
      9 O1         -2.0241    1.7539    0.0540 O.2       1 <0>        -0.5062
     10 C8          0.2890    1.4458   -0.0690 C.ar      1 <0>        -0.1191
     11 C9          1.5466    2.0476   -0.1456 C.ar      1 <0>        -0.0909
     12 C10         2.6824    1.2668   -0.2091 C.ar      1 <0>        -0.0975
     13 C11         2.5809   -0.1119   -0.1964 C.ar      1 <0>        -0.1237
     14 C12         1.3339   -0.7209   -0.1204 C.ar      1 <0>         0.1346
     15 C13         0.1863    0.0550   -0.0566 C.ar      1 <0>        -0.0638
     16 N2          1.2366   -2.1145   -0.1088 N.pl3     1 <0>        -1.0527
     17 S1          2.1097   -3.0146   -1.1904 S.o2      1 <0>         2.6958
     18 O2          3.4624   -2.5969   -1.0679 O.2       1 <0>        -0.9385
     19 O3          1.7104   -4.3663   -1.0098 O.2       1 <0>        -0.9364
     20 C14         1.5820   -2.5451   -2.8047 C.ar      1 <0>        -0.6685
     21 C15         0.4712   -3.1440   -3.3695 C.ar      1 <0>         0.0047
     22 C16         0.0521   -2.7733   -4.6333 C.ar      1 <0>        -0.1444
     23 C17         0.7511   -1.8097   -5.3394 C.ar      1 <0>         0.1307
     24 C18         1.8684   -1.2132   -4.7752 C.ar      1 <0>         0.0511
     25 C19         2.2822   -1.5825   -3.5071 C.ar      1 <0>        -0.0224
     26 F1          2.5520   -0.2721   -5.4623 F         1 <0>        -0.1187
     27 F2          0.3450   -1.4505   -6.5769 F         1 <0>        -0.1142
     28 N3         -0.7885    6.2431    0.9668 N.am      1 <0>        -0.5834
     29 C20         0.2412    6.9546    0.2004 C.3       1 <0>         0.1001
     30 C21         1.0875    7.7091    1.2523 C.3       1 <0>        -0.1309
     31 C22         0.8709    6.8383    2.5116 C.3       1 <0>        -0.1547
     32 C23        -0.4564    6.1551    2.2664 C.2       1 <0>         0.5165
     33 O4         -1.1239    5.6078    3.1185 O.2       1 <0>        -0.5112
     34 H1         -5.1999    4.2745   -1.0940 H         1 <0>         0.1319
     35 H2         -5.1627    6.5798   -0.2369 H         1 <0>         0.1307
     36 H3         -3.0971    7.5088    0.7242 H         1 <0>         0.1292
     37 H4         -3.1718    2.8851   -0.9945 H         1 <0>         0.1514
     38 H5          0.0456    4.0444    0.0115 H         1 <0>         0.4085
     39 H6          1.6303    3.1243   -0.1554 H         1 <0>         0.1273
     40 H7          3.6542    1.7343   -0.2690 H         1 <0>         0.1432
     41 H8          3.4736   -0.7178   -0.2460 H         1 <0>         0.1646
     42 H9         -0.7837   -0.4162    0.0028 H         1 <0>         0.1470
     43 H10         0.6575   -2.5549    0.5328 H         1 <0>         0.4330
     44 H11        -0.0721   -3.8991   -2.8209 H         1 <0>         0.1601
     45 H12        -0.8184   -3.2387   -5.0717 H         1 <0>         0.1611
     46 H13         3.1525   -1.1189   -3.0667 H         1 <0>         0.1656
     47 H14         0.8609    6.2451   -0.3479 H         1 <0>         0.0715
     48 H15        -0.2220    7.6621   -0.4873 H         1 <0>         0.0855
     49 H16         0.7123    8.7205    1.4081 H         1 <0>         0.0868
     50 H17         2.1389    7.7252    0.9653 H         1 <0>         0.0958
     51 H18         0.8193    7.4632    3.4032 H         1 <0>         0.1069
     52 H19         1.6677    6.1008    2.6071 H         1 <0>         0.1076
@<TRIPOS>BOND
     1    1    6 ar
     2    1    2 ar
     3    1   34 1
     4    2    3 ar
     5    2   35 1
     6    3    4 ar
     7    3   36 1
     8    4    5 ar
     9    4   28 1
    10    5    6 ar
    11    5    7 1
    12    6   37 1
    13    7    8 am
    14    7   38 1
    15    8    9 2
    16    8   10 1
    17   10   15 ar
    18   10   11 ar
    19   11   12 ar
    20   11   39 1
    21   12   13 ar
    22   12   40 1
    23   13   14 ar
    24   13   41 1
    25   14   15 ar
    26   14   16 1
    27   15   42 1
    28   16   17 1
    29   16   43 1
    30   17   18 2
    31   17   19 2
    32   17   20 1
    33   20   25 ar
    34   20   21 ar
    35   21   22 ar
    36   21   44 1
    37   22   23 ar
    38   22   45 1
    39   23   24 ar
    40   23   27 1
    41   24   25 ar
    42   24   26 1
    43   25   46 1
    44   28   32 am
    45   28   29 1
    46   29   30 1
    47   29   47 1
    48   29   48 1
    49   30   31 1
    50   30   49 1
    51   30   50 1
    52   31   32 1
    53   31   51 1
    54   31   52 1
    55   32   33 2
@<TRIPOS>MOLECULE
ZINC12906964
   66    68     0     0     0
SMALL
USER_CHARGES
4-[[(3R,5S)-3,5-dimethyl-1-piperidyl]sulfonyl]-N-[2-oxo-2-[(2,4,6-trimethylphenyl)amino]ethyl]benzamide
@<TRIPOS>ATOM
      1 C1          2.1933    8.0484   15.5246 C.3       1 <0>        -0.1162
      2 C2          1.1347    7.7500   14.4944 C.ar      1 <0>        -0.0784
      3 C3          1.3023    6.6924   13.6194 C.ar      1 <0>        -0.1152
      4 C4          0.3339    6.4163   12.6740 C.ar      1 <0>        -0.0643
      5 C5         -0.8089    7.2021   12.6029 C.ar      1 <0>         0.1242
      6 C6         -0.9715    8.2669   13.4793 C.ar      1 <0>        -0.0857
      7 C7         -0.0024    8.5340   14.4264 C.ar      1 <0>        -0.1155
      8 C8         -2.2072    9.1260   13.4016 C.3       1 <0>        -0.1155
      9 N1         -1.7918    6.9249   11.6463 N.am      1 <0>        -0.6671
     10 C9         -1.4517    6.7954   10.3486 C.2       1 <0>         0.5085
     11 O1         -0.3101    7.0054    9.9970 O.2       1 <0>        -0.5132
     12 C10        -2.4899    6.3895    9.3345 C.3       1 <0>         0.1008
     13 N2         -1.8745    6.3194    8.0069 N.am      1 <0>        -0.7128
     14 C11        -2.6177    5.9735    6.9370 C.2       1 <0>         0.5597
     15 O2         -3.7985    5.7197    7.0737 O.2       1 <0>        -0.5239
     16 C12        -1.9966    5.9028    5.5972 C.ar      1 <0>        -0.0800
     17 C13        -2.7634    5.5449    4.4872 C.ar      1 <0>        -0.0780
     18 C14        -2.1777    5.4803    3.2399 C.ar      1 <0>        -0.0264
     19 C15        -0.8331    5.7689    3.0879 C.ar      1 <0>        -0.6558
     20 C16        -0.0661    6.1193    4.1849 C.ar      1 <0>        -0.0260
     21 C17        -0.6409    6.1931    5.4369 C.ar      1 <0>        -0.1055
     22 S1         -0.0925    5.6830    1.4914 S.o2      1 <0>         2.6873
     23 O3         -0.8934    4.7988    0.7193 O.2       1 <0>        -0.9484
     24 O4          1.2966    5.4677    1.6991 O.2       1 <0>        -0.9488
     25 N3         -0.2413    7.1810    0.8013 N.pl3     1 <0>        -0.9953
     26 C18        -1.4204    7.5188   -0.0076 C.3       1 <0>         0.1195
     27 C19        -0.9513    8.0335   -1.3720 C.3       1 <0>        -0.1047
     28 H1         -0.4510    7.2294   -1.9118 H         1 <0>         0.0776
     29 C20         0.0239    9.1950   -1.1669 C.3       1 <0>        -0.1090
     30 C21         1.2473    8.7048   -0.3889 C.3       1 <0>        -0.1047
     31 H2          1.7272    7.8948   -0.9382 H         1 <0>         0.0777
     32 C22         0.8031    8.1976    0.9867 C.3       1 <0>         0.1196
     33 C23         2.2365    9.8586   -0.2128 C.3       1 <0>        -0.1476
     34 C24        -2.1582    8.5165   -2.1789 C.3       1 <0>        -0.1476
     35 C25         0.5171    5.2633   11.7211 C.3       1 <0>        -0.1088
     36 H3          2.9199    8.7457   15.1075 H         1 <0>         0.0722
     37 H4          1.7285    8.4916   16.4053 H         1 <0>         0.0676
     38 H5          2.6972    7.1238   15.8062 H         1 <0>         0.0677
     39 H6          2.1914    6.0819   13.6750 H         1 <0>         0.1261
     40 H7         -0.1304    9.3590   15.1115 H         1 <0>         0.1266
     41 H8         -3.0114    8.6580   13.9694 H         1 <0>         0.0726
     42 H9         -1.9926   10.1098   13.8188 H         1 <0>         0.0712
     43 H10        -2.5115    9.2314   12.3602 H         1 <0>         0.0651
     44 H11        -2.7180    6.8261   11.9172 H         1 <0>         0.4123
     45 H12        -3.2943    7.1250    9.3237 H         1 <0>         0.1063
     46 H13        -2.8943    5.4126    9.5995 H         1 <0>         0.1071
     47 H14        -0.9322    6.5220    7.8978 H         1 <0>         0.4137
     48 H15        -3.8131    5.3193    4.6045 H         1 <0>         0.1493
     49 H16        -2.7699    5.2035    2.3802 H         1 <0>         0.1491
     50 H17         0.9838    6.3394    4.0602 H         1 <0>         0.1481
     51 H18        -0.0421    6.4707    6.2918 H         1 <0>         0.1390
     52 H19        -1.9992    8.2932    0.4958 H         1 <0>         0.0724
     53 H20        -2.0365    6.6300   -0.1444 H         1 <0>         0.0947
     54 H21         0.3403    9.5791   -2.1366 H         1 <0>         0.0680
     55 H22        -0.4693    9.9884   -0.6053 H         1 <0>         0.0659
     56 H23         1.6541    7.7568    1.5059 H         1 <0>         0.0945
     57 H24         0.4056    9.0274    1.5712 H         1 <0>         0.0723
     58 H25         1.7565   10.6678    0.3375 H         1 <0>         0.0574
     59 H26         3.1076    9.5090    0.3413 H         1 <0>         0.0595
     60 H27         2.5500   10.2210   -1.1918 H         1 <0>         0.0606
     61 H28        -1.8233    8.8839   -3.1489 H         1 <0>         0.0606
     62 H29        -2.8530    7.6892   -2.3238 H         1 <0>         0.0596
     63 H30        -2.6581    9.3205   -1.6387 H         1 <0>         0.0574
     64 H31         1.1503    5.5754   10.8906 H         1 <0>         0.0842
     65 H32         0.9880    4.4309   12.2442 H         1 <0>         0.0641
     66 H33        -0.4544    4.9496   11.3393 H         1 <0>         0.0544
@<TRIPOS>BOND
     1    1    2 1
     2    1   36 1
     3    1   37 1
     4    1   38 1
     5    2    7 ar
     6    2    3 ar
     7    3    4 ar
     8    3   39 1
     9    4    5 ar
    10    4   35 1
    11    5    6 ar
    12    5    9 1
    13    6    7 ar
    14    6    8 1
    15    7   40 1
    16    8   41 1
    17    8   42 1
    18    8   43 1
    19    9   10 am
    20    9   44 1
    21   10   11 2
    22   10   12 1
    23   12   13 1
    24   12   45 1
    25   12   46 1
    26   13   14 am
    27   13   47 1
    28   14   15 2
    29   14   16 1
    30   16   21 ar
    31   16   17 ar
    32   17   18 ar
    33   17   48 1
    34   18   19 ar
    35   18   49 1
    36   19   20 ar
    37   19   22 1
    38   20   21 ar
    39   20   50 1
    40   21   51 1
    41   22   23 2
    42   22   24 2
    43   22   25 1
    44   25   32 1
    45   25   26 1
    46   26   27 1
    47   26   52 1
    48   26   53 1
    49   27   28 1
    50   27   29 1
    51   27   34 1
    52   29   30 1
    53   29   54 1
    54   29   55 1
    55   30   31 1
    56   30   32 1
    57   30   33 1
    58   32   56 1
    59   32   57 1
    60   33   58 1
    61   33   59 1
    62   33   60 1
    63   34   61 1
    64   34   62 1
    65   34   63 1
    66   35   64 1
    67   35   65 1
    68   35   66 1
@<TRIPOS>MOLECULE
ZINC17518458
   60    62     0     0     0
SMALL
USER_CHARGES
N'-(4-tert-butylbenzoyl)-1-(2,5-difluorophenyl)sulfonyl-piperidine-4-carbohydrazide
@<TRIPOS>ATOM
      1 C1          0.4232    4.0832    1.2685 C.3       1 <0>        -0.1406
      2 C2          1.1421    3.5931    0.0100 C.3       1 <0>        -0.0355
      3 C3          2.5748    4.1300   -0.0007 C.3       1 <0>        -0.1475
      4 C4          0.3998    4.0959   -1.2298 C.3       1 <0>        -0.1407
      5 C5          1.1702    2.0864    0.0021 C.ar      1 <0>        -0.0359
      6 C6         -0.0166    1.3754    0.0096 C.ar      1 <0>        -0.1226
      7 C7          0.0021   -0.0041    0.0020 C.ar      1 <0>        -0.0493
      8 C8          1.2219   -0.6823   -0.0133 C.ar      1 <0>        -0.1381
      9 C9          2.4156    0.0411   -0.0209 C.ar      1 <0>        -0.0813
     10 C10         2.3828    1.4202   -0.0132 C.ar      1 <0>        -0.1273
     11 C11         1.2495   -2.1605   -0.0210 C.2       1 <0>         0.5638
     12 O1          0.2084   -2.7878   -0.0140 O.2       1 <0>        -0.5347
     13 N1          2.4290   -2.8124   -0.0358 N.am      1 <0>        -0.5222
     14 N2          2.4551   -4.2131   -0.0432 N.am      1 <0>        -0.5212
     15 C12         3.6346   -4.8651   -0.0580 C.2       1 <0>         0.5190
     16 O2          4.6734   -4.2391   -0.0650 O.2       1 <0>        -0.5336
     17 C13         3.6627   -6.3718   -0.0658 C.3       1 <0>        -0.0935
     18 C14         2.9616   -6.9013    1.1872 C.3       1 <0>        -0.1333
     19 C15         2.9616   -8.4330    1.1587 C.3       1 <0>         0.1207
     20 N3          4.3442   -8.9029    0.9967 N.pl3     1 <0>        -0.9933
     21 C16         5.1393   -8.3857   -0.1254 C.3       1 <0>         0.1148
     22 C17         5.1149   -6.8546   -0.0824 C.3       1 <0>        -0.1147
     23 S1          4.9939   -9.9953    2.0583 S.o2      1 <0>         2.6918
     24 O3          3.9028  -10.7002    2.6343 O.2       1 <0>        -0.9424
     25 O4          6.0478  -10.6539    1.3692 O.2       1 <0>        -0.9351
     26 C18         5.7423   -9.0742    3.3607 C.ar      1 <0>        -0.6927
     27 C19         5.2393   -9.1599    4.6451 C.ar      1 <0>        -0.0302
     28 C20         5.8296   -8.4392    5.6691 C.ar      1 <0>         0.0757
     29 C21         6.9184   -7.6255    5.4047 C.ar      1 <0>        -0.0696
     30 C22         7.4182   -7.5362    4.1198 C.ar      1 <0>        -0.1394
     31 C23         6.8304   -8.2604    3.0964 C.ar      1 <0>         0.1876
     32 F1          7.3192   -8.1731    1.8399 F         1 <0>        -0.1144
     33 F2          5.3408   -8.5265    6.9256 F         1 <0>        -0.1258
     34 H1          0.9521    3.7250    2.1518 H         1 <0>         0.0579
     35 H2          0.4029    5.1730    1.2743 H         1 <0>         0.0624
     36 H3         -0.5974    3.7007    1.2762 H         1 <0>         0.0591
     37 H4          3.0870    3.7809   -0.8973 H         1 <0>         0.0605
     38 H5          2.5545    5.2198    0.0050 H         1 <0>         0.0620
     39 H6          3.1036    3.7718    0.8826 H         1 <0>         0.0603
     40 H7         -0.6208    3.7134   -1.2222 H         1 <0>         0.0591
     41 H8          0.3795    5.1857   -1.2241 H         1 <0>         0.0624
     42 H9          0.9120    3.7467   -2.1264 H         1 <0>         0.0580
     43 H10        -0.9598    1.9014    0.0169 H         1 <0>         0.1322
     44 H11        -0.9251   -0.5579    0.0076 H         1 <0>         0.1386
     45 H12         3.3627   -0.4777   -0.0324 H         1 <0>         0.1256
     46 H13         3.3057    1.9812   -0.0190 H         1 <0>         0.1365
     47 H14         3.2598   -2.3118   -0.0414 H         1 <0>         0.4315
     48 H15         1.6243   -4.7138   -0.0376 H         1 <0>         0.4329
     49 H16         3.1474   -6.7400   -0.9530 H         1 <0>         0.1120
     50 H17         3.4909   -6.5540    2.0745 H         1 <0>         0.0772
     51 H18         1.9342   -6.5379    1.2103 H         1 <0>         0.0865
     52 H19         2.3564   -8.7829    0.3224 H         1 <0>         0.0879
     53 H20         2.5527   -8.8159    2.0938 H         1 <0>         0.1000
     54 H21         4.7117   -8.7317   -1.0664 H         1 <0>         0.0852
     55 H22         6.1673   -8.7373   -0.0375 H         1 <0>         0.1032
     56 H23         5.6201   -6.4578   -0.9630 H         1 <0>         0.0911
     57 H24         5.6239   -6.5076    0.8168 H         1 <0>         0.0771
     58 H25         4.3875   -9.7913    4.8505 H         1 <0>         0.1667
     59 H26         7.3766   -7.0604    6.2029 H         1 <0>         0.1572
     60 H27         8.2672   -6.9013    3.9136 H         1 <0>         0.1586
@<TRIPOS>BOND
     1    1    2 1
     2    1   34 1
     3    1   35 1
     4    1   36 1
     5    2    3 1
     6    2    4 1
     7    2    5 1
     8    3   37 1
     9    3   38 1
    10    3   39 1
    11    4   40 1
    12    4   41 1
    13    4   42 1
    14    5   10 ar
    15    5    6 ar
    16    6    7 ar
    17    6   43 1
    18    7    8 ar
    19    7   44 1
    20    8    9 ar
    21    8   11 1
    22    9   10 ar
    23    9   45 1
    24   10   46 1
    25   11   12 2
    26   11   13 am
    27   13   14 1
    28   13   47 1
    29   14   15 am
    30   14   48 1
    31   15   16 2
    32   15   17 1
    33   17   22 1
    34   17   18 1
    35   17   49 1
    36   18   19 1
    37   18   50 1
    38   18   51 1
    39   19   20 1
    40   19   52 1
    41   19   53 1
    42   20   21 1
    43   20   23 1
    44   21   22 1
    45   21   54 1
    46   21   55 1
    47   22   56 1
    48   22   57 1
    49   23   24 2
    50   23   25 2
    51   23   26 1
    52   26   31 ar
    53   26   27 ar
    54   27   28 ar
    55   27   58 1
    56   28   29 ar
    57   28   33 1
    58   29   30 ar
    59   29   59 1
    60   30   31 ar
    61   30   60 1
    62   31   32 1
@<TRIPOS>MOLECULE
ZINC30828785
   52    55     0     0     0
SMALL
USER_CHARGES
N-[[4-[4-(2,2,2-trifluoroacetyl)piperazin-1-yl]phenyl]carbamothioyl]benzofuran-2-carboxamide
@<TRIPOS>ATOM
      1 C1         -1.5254    6.9460   -1.9001 C.ar      1 <0>        -0.1367
      2 C2         -1.4003    5.8934   -1.0033 C.ar      1 <0>        -0.0762
      3 C3         -0.1581    5.4684   -0.5848 C.ar      1 <0>        -0.1137
      4 C4          0.9861    6.0930   -1.0678 C.ar      1 <0>         0.0747
      5 C5          0.8537    7.1551   -1.9817 C.ar      1 <0>        -0.1480
      6 C6         -0.4152    7.5710   -2.3931 C.ar      1 <0>        -0.0550
      7 C7          2.2168    7.5855   -2.2896 C.2       1 <0>        -0.0908
      8 C8          3.0380    6.7808   -1.5655 C.2       1 <0>        -0.0402
      9 O1          2.3021    5.9052   -0.8493 O.3       1 <0>        -0.1912
     10 C9          4.5049    6.8530   -1.5627 C.2       1 <0>         0.5846
     11 O2          5.0743    7.6823   -2.2465 O.2       1 <0>        -0.3820
     12 N1          5.2202    6.0005   -0.8024 N.am      1 <0>        -0.6512
     13 C10         6.5663    6.0668   -0.7998 C.2       1 <0>         0.5217
     14 S1          7.3677    7.2340   -1.7623 S.2       1 <0>        -0.5006
     15 N2          7.2815    5.2143   -0.0394 N.pl3     1 <0>        -0.6273
     16 C11         8.6812    5.2237   -0.1037 C.ar      1 <0>         0.0942
     17 C12         9.3804    4.0269   -0.1873 C.ar      1 <0>        -0.0880
     18 C13        10.7594    4.0363   -0.2563 C.ar      1 <0>        -0.1672
     19 C14        11.4476    5.2423   -0.2306 C.ar      1 <0>         0.1203
     20 C15        10.7485    6.4389   -0.1413 C.ar      1 <0>        -0.1318
     21 C16         9.3693    6.4295   -0.0780 C.ar      1 <0>        -0.0419
     22 N3         12.8453    5.2516   -0.2943 N.pl3     1 <0>        -0.4867
     23 C17        13.3159    6.0812   -1.4116 C.3       1 <0>         0.0410
     24 C18        14.8408    6.2129   -1.3388 C.3       1 <0>         0.0915
     25 N4         15.4239    4.8640   -1.2772 N.am      1 <0>        -0.5880
     26 C19        14.9049    3.9270   -0.2692 C.3       1 <0>         0.1126
     27 C20        13.3774    3.8853   -0.3841 C.3       1 <0>         0.0331
     28 C21        16.4078    4.4964   -2.1216 C.2       1 <0>         0.4857
     29 O3         16.8773    3.3801   -2.0565 O.2       1 <0>        -0.4758
     30 C22        16.9247    5.4726   -3.1469 C.3       1 <0>         0.4515
     31 F1         17.9354    4.8660   -3.9004 F         1 <0>        -0.1500
     32 F2         15.8792    5.8573   -3.9931 F         1 <0>        -0.1654
     33 F3         17.4392    6.6006   -2.4989 F         1 <0>        -0.1649
     34 H1         -2.5069    7.2697   -2.2136 H         1 <0>         0.1352
     35 H2         -2.2868    5.4055   -0.6257 H         1 <0>         0.1403
     36 H3         -0.0737    4.6516    0.1167 H         1 <0>         0.1365
     37 H4         -0.5179    8.3859   -3.0943 H         1 <0>         0.1343
     38 H5          2.5112    8.3817   -2.9573 H         1 <0>         0.1747
     39 H6          4.7053    5.2505   -0.1839 H         1 <0>         0.4426
     40 H7          6.7664    4.5112    0.6316 H         1 <0>         0.4315
     41 H8          8.8454    3.0888   -0.2024 H         1 <0>         0.1258
     42 H9         11.3029    3.1056   -0.3261 H         1 <0>         0.1323
     43 H10        11.2836    7.3768   -0.1209 H         1 <0>         0.1324
     44 H11         8.8256    7.3601   -0.0089 H         1 <0>         0.1480
     45 H12        13.0325    5.6089   -2.3637 H         1 <0>         0.0577
     46 H13        12.8570    7.0788   -1.3463 H         1 <0>         0.1075
     47 H14        15.2064    6.7393   -2.2328 H         1 <0>         0.0982
     48 H15        15.1171    6.7825   -0.4393 H         1 <0>         0.0994
     49 H16        15.3223    2.9255   -0.4503 H         1 <0>         0.1088
     50 H17        15.1965    4.2697    0.7346 H         1 <0>         0.0930
     51 H18        12.9635    3.2762    0.4330 H         1 <0>         0.1059
     52 H19        13.0931    3.4439   -1.3507 H         1 <0>         0.0574
@<TRIPOS>BOND
     1    1    6 ar
     2    1    2 ar
     3    1   34 1
     4    2    3 ar
     5    2   35 1
     6    3    4 ar
     7    3   36 1
     8    4    9 1
     9    4    5 ar
    10    5    6 ar
    11    5    7 1
    12    6   37 1
    13    7    8 2
    14    7   38 1
    15    8    9 1
    16    8   10 1
    17   10   11 2
    18   10   12 am
    19   12   13 1
    20   12   39 1
    21   13   14 2
    22   13   15 1
    23   15   16 1
    24   15   40 1
    25   16   21 ar
    26   16   17 ar
    27   17   18 ar
    28   17   41 1
    29   18   19 ar
    30   18   42 1
    31   19   20 ar
    32   19   22 1
    33   20   21 ar
    34   20   43 1
    35   21   44 1
    36   22   27 1
    37   22   23 1
    38   23   24 1
    39   23   45 1
    40   23   46 1
    41   24   25 1
    42   24   47 1
    43   24   48 1
    44   25   26 1
    45   25   28 am
    46   26   27 1
    47   26   49 1
    48   26   50 1
    49   27   51 1
    50   27   52 1
    51   28   29 2
    52   28   30 1
    53   30   31 1
    54   30   32 1
    55   30   33 1
@<TRIPOS>MOLECULE
ZINC39852186
   54    58     0     0     0
SMALL
USER_CHARGES

@<TRIPOS>ATOM
      1 C1          0.4722    2.1294   -0.0137 C.ar      1 <0>        -0.1155
      2 C2          1.7420    2.6723   -0.0768 C.ar      1 <0>        -0.1189
      3 C3          2.8483    1.8435   -0.0872 C.ar      1 <0>        -0.1029
      4 C4          2.6849    0.4719   -0.0340 C.ar      1 <0>        -0.0743
      5 C5          1.4152   -0.0710    0.0300 C.ar      1 <0>        -0.1030
      6 C6          0.3088    0.7577    0.0390 C.ar      1 <0>        -0.1190
      7 C7          3.8909   -0.4316   -0.0463 C.3       1 <0>        -0.0897
      8 C8          4.3441   -0.6839    1.3687 C.2       1 <0>         0.5164
      9 O1          3.7465   -0.1796    2.2958 O.2       1 <0>        -0.5256
     10 N1          5.4134   -1.4698    1.6038 N.am      1 <0>        -0.5239
     11 N2          5.8347   -1.7043    2.9193 N.am      1 <0>        -0.5187
     12 C9          6.9040   -2.4903    3.1544 C.2       1 <0>         0.5631
     13 O2          7.5030   -2.9958    2.2250 O.2       1 <0>        -0.5280
     14 C10         7.3480   -2.7374    4.5407 C.ar      1 <0>        -0.1217
     15 C11         6.6573   -2.1619    5.6103 C.ar      1 <0>        -0.0671
     16 C12         7.0741   -2.3944    6.9019 C.ar      1 <0>        -0.1192
     17 C13         8.1815   -3.2008    7.1425 C.ar      1 <0>         0.1708
     18 C14         8.8714   -3.7753    6.0802 C.ar      1 <0>        -0.1051
     19 C15         8.4563   -3.5520    4.7863 C.ar      1 <0>        -0.0339
     20 N3          8.6022   -3.4338    8.4542 N.pl3     1 <0>        -0.2905
     21 C16         7.8103   -3.7071    9.5063 C.2       1 <0>         0.1820
     22 C17         8.6232   -3.9037   10.6101 C.2       1 <0>        -0.2011
     23 C18         9.9311   -3.7071   10.1974 C.2       1 <0>         0.0090
     24 N4          9.9308   -3.4314    8.9136 N.2       1 <0>        -0.2307
     25 C19        11.1524   -3.8002   11.0754 C.3       1 <0>         0.5575
     26 F1         11.6347   -5.1134   11.0657 F         1 <0>        -0.1638
     27 F2         12.1412   -2.9367   10.5919 F         1 <0>        -0.1634
     28 F3         10.8150   -3.4369   12.3836 F         1 <0>        -0.1613
     29 C20         8.0824   -4.2930   11.9588 C.3       1 <0>        -0.0460
     30 C21         6.6800   -3.7253   12.1846 C.3       1 <0>        -0.0392
     31 C22         5.8277   -3.8607   10.9508 C.2       1 <0>         0.0477
     32 C23         6.3555   -3.8268    9.6810 C.2       1 <0>        -0.1616
     33 C24         5.2421   -3.9278    8.7639 C.2       1 <0>        -0.1843
     34 C25         4.1430   -4.0431    9.5382 C.2       1 <0>        -0.0281
     35 O3          4.5106   -4.0211   10.8328 O.3       1 <0>        -0.1591
     36 H1         -0.3919    2.7770   -0.0011 H         1 <0>         0.1227
     37 H2          1.8696    3.7439   -0.1184 H         1 <0>         0.1234
     38 H3          3.8403    2.2676   -0.1372 H         1 <0>         0.1207
     39 H4          1.2875   -1.1426    0.0712 H         1 <0>         0.1206
     40 H5         -0.6831    0.3336    0.0886 H         1 <0>         0.1233
     41 H6          3.6305   -1.3788   -0.5187 H         1 <0>         0.1118
     42 H7          4.6959    0.0444   -0.6062 H         1 <0>         0.1119
     43 H8          5.8913   -1.8732    0.8623 H         1 <0>         0.4342
     44 H9          5.3568   -1.3010    3.6608 H         1 <0>         0.4317
     45 H10         5.7977   -1.5351    5.4241 H         1 <0>         0.1410
     46 H11         6.5407   -1.9499    7.7291 H         1 <0>         0.1442
     47 H12         9.7310   -4.4009    6.2705 H         1 <0>         0.1468
     48 H13         8.9898   -4.0020    3.9621 H         1 <0>         0.1539
     49 H14         8.0418   -5.3802   12.0262 H         1 <0>         0.0860
     50 H15         8.7493   -3.9138   12.7331 H         1 <0>         0.1033
     51 H16         6.2059   -4.2623   13.0062 H         1 <0>         0.1018
     52 H17         6.7604   -2.6708   12.4485 H         1 <0>         0.1006
     53 H18         5.2819   -3.9135    7.6847 H         1 <0>         0.1580
     54 H19         3.1296   -4.1375    9.1767 H         1 <0>         0.2133
@<TRIPOS>BOND
     1    1    6 ar
     2    1    2 ar
     3    1   36 1
     4    2    3 ar
     5    2   37 1
     6    3    4 ar
     7    3   38 1
     8    4    5 ar
     9    4    7 1
    10    5    6 ar
    11    5   39 1
    12    6   40 1
    13    7    8 1
    14    7   41 1
    15    7   42 1
    16    8    9 2
    17    8   10 am
    18   10   11 1
    19   10   43 1
    20   11   12 am
    21   11   44 1
    22   12   13 2
    23   12   14 1
    24   14   19 ar
    25   14   15 ar
    26   15   16 ar
    27   15   45 1
    28   16   17 ar
    29   16   46 1
    30   17   18 ar
    31   17   20 1
    32   18   19 ar
    33   18   47 1
    34   19   48 1
    35   20   24 1
    36   20   21 1
    37   21   32 1
    38   21   22 2
    39   22   23 1
    40   22   29 1
    41   23   24 2
    42   23   25 1
    43   25   26 1
    44   25   27 1
    45   25   28 1
    46   29   30 1
    47   29   49 1
    48   29   50 1
    49   30   31 1
    50   30   51 1
    51   30   52 1
    52   31   35 1
    53   31   32 2
    54   32   33 1
    55   33   34 2
    56   33   53 1
    57   34   35 1
    58   34   54 1
@<TRIPOS>MOLECULE
ZINC09670244
   51    54     0     0     0
SMALL
USER_CHARGES
N-[5-[(3-carbamoyl-4,5,6,7-tetrahydrobenzothiophen-2-yl)carbamoyl]-2-methyl-phenyl]furan-2-carboxamide
@<TRIPOS>ATOM
      1 C1         -0.0143    1.4949    0.0151 C.3       1 <0>        -0.1238
      2 C2          0.0144   -0.0118    0.0017 C.ar      1 <0>        -0.0791
      3 C3          0.0450   -0.7108    1.1941 C.ar      1 <0>        -0.1015
      4 C4          0.0710   -2.0903    1.1901 C.ar      1 <0>        -0.0964
      5 C5          0.0663   -2.7852   -0.0212 C.ar      1 <0>        -0.1214
      6 C6          0.0354   -2.0800   -1.2242 C.ar      1 <0>        -0.0612
      7 C7          0.0042   -0.6939   -1.2091 C.ar      1 <0>         0.1417
      8 N1         -0.0327    0.0179   -2.4124 N.am      1 <0>        -0.6605
      9 C8         -0.5297   -0.5615   -3.5232 C.2       1 <0>         0.6050
     10 O1         -1.0379   -1.6654   -3.4583 O.2       1 <0>        -0.4885
     11 C9         -0.4581    0.1381   -4.8097 C.2       1 <0>        -0.0924
     12 C10        -0.9206   -0.3319   -6.0056 C.2       1 <0>        -0.1037
     13 C11        -0.6459    0.6583   -6.9618 C.2       1 <0>        -0.2248
     14 C12        -0.0356    1.6764   -6.3160 C.2       1 <0>         0.0048
     15 O2          0.0710    1.3615   -5.0185 O.3       1 <0>        -0.1665
     16 C13         0.0946   -4.2630   -0.0285 C.2       1 <0>         0.5579
     17 O3          0.0904   -4.8658   -1.0840 O.2       1 <0>        -0.4869
     18 N2          0.1249   -4.9421    1.1353 N.am      1 <0>        -0.6170
     19 C14         0.1513   -6.3273    1.1285 C.2       1 <0>         0.0748
     20 C15         0.1897   -7.1946    2.2116 C.2       1 <0>        -0.2302
     21 C16         0.2067   -8.6199    1.9301 C.2       1 <0>        -0.0654
     22 C17         0.1943   -8.9477    0.6198 C.2       1 <0>        -0.2093
     23 S1          0.1522   -7.3974   -0.2342 S.3       1 <0>         0.2336
     24 C18         0.2133  -10.3255    0.0332 C.3       1 <0>        -0.0360
     25 C19         0.6267  -11.3139    1.1333 C.3       1 <0>        -0.1140
     26 C20        -0.1977  -11.0252    2.3911 C.3       1 <0>        -0.1196
     27 C21         0.2424   -9.6964    3.0079 C.3       1 <0>        -0.0609
     28 C22         0.2078   -6.6912    3.5884 C.2       1 <0>         0.5848
     29 O4         -0.8383   -6.5028    4.1813 O.2       1 <0>        -0.5331
     30 N3          1.3828   -6.4370    4.1976 N.am      1 <0>        -0.8480
     31 H1          1.0061    1.8778    0.0035 H         1 <0>         0.0803
     32 H2         -0.5479    1.8559   -0.8641 H         1 <0>         0.0678
     33 H3         -0.5219    1.8406    0.9156 H         1 <0>         0.0801
     34 H4          0.0483   -0.1753    2.1320 H         1 <0>         0.1395
     35 H5          0.0952   -2.6327    2.1237 H         1 <0>         0.1269
     36 H6          0.0313   -2.6119   -2.1641 H         1 <0>         0.1642
     37 H7          0.2994    0.9286   -2.4476 H         1 <0>         0.4189
     38 H8         -1.4037   -1.2816   -6.1816 H         1 <0>         0.1642
     39 H9         -0.8783    0.6145   -8.0156 H         1 <0>         0.1612
     40 H10         0.3058    2.5947   -6.7704 H         1 <0>         0.2146
     41 H11         0.1281   -4.4611    1.9776 H         1 <0>         0.4181
     42 H12        -0.7799  -10.5812   -0.3358 H         1 <0>         0.0828
     43 H13         0.9311  -10.3659   -0.7862 H         1 <0>         0.0813
     44 H14         0.4372  -12.3337    0.7983 H         1 <0>         0.0738
     45 H15         1.6874  -11.1929    1.3535 H         1 <0>         0.0680
     46 H16        -1.2538  -10.9697    2.1270 H         1 <0>         0.0676
     47 H17        -0.0470  -11.8264    3.1147 H         1 <0>         0.0701
     48 H18        -0.4365   -9.4263    3.8168 H         1 <0>         0.0749
     49 H19         1.2556   -9.7924    3.3981 H         1 <0>         0.0763
     50 H20         2.2166   -6.5872    3.7251 H         1 <0>         0.4037
     51 H21         1.3948   -6.1040    5.1086 H         1 <0>         0.4030
@<TRIPOS>BOND
     1    1    2 1
     2    1   31 1
     3    1   32 1
     4    1   33 1
     5    2    7 ar
     6    2    3 ar
     7    3    4 ar
     8    3   34 1
     9    4    5 ar
    10    4   35 1
    11    5    6 ar
    12    5   16 1
    13    6    7 ar
    14    6   36 1
    15    7    8 1
    16    8    9 am
    17    8   37 1
    18    9   10 2
    19    9   11 1
    20   11   15 1
    21   11   12 2
    22   12   13 1
    23   12   38 1
    24   13   14 2
    25   13   39 1
    26   14   15 1
    27   14   40 1
    28   16   17 2
    29   16   18 am
    30   18   19 1
    31   18   41 1
    32   19   23 1
    33   19   20 2
    34   20   21 1
    35   20   28 1
    36   21   27 1
    37   21   22 2
    38   22   23 1
    39   22   24 1
    40   24   25 1
    41   24   42 1
    42   24   43 1
    43   25   26 1
    44   25   44 1
    45   25   45 1
    46   26   27 1
    47   26   46 1
    48   26   47 1
    49   27   48 1
    50   27   49 1
    51   28   29 2
    52   28   30 am
    53   30   50 1
    54   30   51 1
@<TRIPOS>MOLECULE
ZINC25069597
   58    60     0     0     0
SMALL
USER_CHARGES
N-(5-carbamoyl-2-pyrrolidin-1-yl-phenyl)-5-(2,2-dimethylpropanoylamino)-3-methyl-thiophene-2-carboxamide
@<TRIPOS>ATOM
      1 C1         -3.3114    8.2349    0.5542 C.3       1 <0>        -0.1015
      2 C2         -4.3814    7.1771    0.4699 C.2       1 <0>         0.0045
      3 C3         -5.7097    7.4995    0.5477 C.2       1 <0>        -0.2340
      4 C4         -6.6435    6.4885    0.4720 C.2       1 <0>         0.0779
      5 S1         -5.6695    5.0670    0.2816 S.3       1 <0>         0.2375
      6 C5         -4.0605    5.8368    0.3061 C.2       1 <0>        -0.3113
      7 C6         -2.7431    5.2153    0.1901 C.2       1 <0>         0.6092
      8 O1         -1.7394    5.9040    0.2285 O.2       1 <0>        -0.5089
      9 N1         -2.6388    3.8799    0.0405 N.am      1 <0>        -0.6785
     10 C7         -1.3759    3.2735    0.0230 C.ar      1 <0>         0.1287
     11 C8         -0.3008    3.9308   -0.5449 C.ar      1 <0>        -0.0408
     12 C9          0.9574    3.3222   -0.5608 C.ar      1 <0>        -0.1457
     13 C10         1.1241    2.0516   -0.0028 C.ar      1 <0>        -0.0748
     14 C11         0.0502    1.4000    0.5620 C.ar      1 <0>        -0.1599
     15 C12        -1.2033    2.0009    0.5744 C.ar      1 <0>         0.1045
     16 N2         -2.2875    1.3362    1.1419 N.pl3     1 <0>        -0.4742
     17 C13        -1.8508    0.0909    1.8236 C.3       1 <0>         0.0268
     18 C14        -3.0175   -0.2073    2.7986 C.3       1 <0>        -0.1232
     19 C15        -3.4378    1.2018    3.2758 C.3       1 <0>        -0.1283
     20 C16        -2.9291    2.1638    2.1863 C.3       1 <0>         0.0411
     21 C17         2.1079    4.0202   -1.1653 C.2       1 <0>         0.5653
     22 O2          1.9620    5.1256   -1.6506 O.2       1 <0>        -0.5441
     23 N3          3.3208    3.4327   -1.1798 N.am      1 <0>        -0.8753
     24 N4         -8.0282    6.5849    0.5341 N.am      1 <0>        -0.6320
     25 C18        -8.7859    5.4742    0.4415 C.2       1 <0>         0.5173
     26 O3         -8.2591    4.3905    0.3039 O.2       1 <0>        -0.4992
     27 C19       -10.2878    5.5788    0.5088 C.3       1 <0>        -0.0758
     28 C20       -10.9025    4.1837    0.3798 C.3       1 <0>        -0.1339
     29 C21       -10.6965    6.1944    1.8485 C.3       1 <0>        -0.1468
     30 C22       -10.7890    6.4646   -0.6336 C.3       1 <0>        -0.1471
     31 H1         -3.7805    9.2215    0.6827 H         1 <0>         0.0627
     32 H2         -2.7167    8.2294   -0.3711 H         1 <0>         0.0816
     33 H3         -2.6560    8.0259    1.4126 H         1 <0>         0.0801
     34 H4         -6.0200    8.5266    0.6708 H         1 <0>         0.1406
     35 H5         -3.5452    3.2661   -0.0679 H         1 <0>         0.4344
     36 H6         -0.4325    4.9127   -0.9749 H         1 <0>         0.1566
     37 H7          2.0957    1.5803   -0.0149 H         1 <0>         0.1280
     38 H8          0.1813    0.4182    0.9923 H         1 <0>         0.1390
     39 H9         -1.7113   -0.7057    1.0779 H         1 <0>         0.0905
     40 H10        -0.9008    0.2733    2.3473 H         1 <0>         0.0626
     41 H11        -3.8218   -0.7291    2.2593 H         1 <0>         0.0791
     42 H12        -2.6553   -0.8422    3.6206 H         1 <0>         0.0780
     43 H13        -4.5326    1.2442    3.3742 H         1 <0>         0.0793
     44 H14        -2.9737    1.4124    4.2506 H         1 <0>         0.0732
     45 H15        -2.1916    2.8661    2.6021 H         1 <0>         0.0566
     46 H16        -3.7644    2.7277    1.7456 H         1 <0>         0.0823
     47 H17         4.1787    3.9532   -1.6305 H         1 <0>         0.4253
     48 H18         3.4529    2.4327   -0.7409 H         1 <0>         0.4160
     49 H19        -8.5061    7.5678    0.6588 H         1 <0>         0.4476
     50 H20       -11.9987    4.2601    0.4289 H         1 <0>         0.0692
     51 H21       -10.5421    3.5469    1.2011 H         1 <0>         0.0660
     52 H22       -10.6086    3.7412   -0.5834 H         1 <0>         0.0661
     53 H23       -11.7927    6.2708    1.8977 H         1 <0>         0.0773
     54 H24       -10.2545    7.1974    1.9412 H         1 <0>         0.0612
     55 H25       -10.3361    5.5576    2.6698 H         1 <0>         0.0653
     56 H26       -11.8852    6.5410   -0.5845 H         1 <0>         0.0773
     57 H27       -10.4950    6.0220   -1.5968 H         1 <0>         0.0656
     58 H28       -10.3470    7.4676   -0.5408 H         1 <0>         0.0613
@<TRIPOS>BOND
     1    1    2 1
     2    1   31 1
     3    1   32 1
     4    1   33 1
     5    2    6 2
     6    2    3 1
     7    3    4 2
     8    3   34 1
     9    4    5 1
    10    4   24 1
    11    5    6 1
    12    6    7 1
    13    7    8 2
    14    7    9 am
    15    9   10 1
    16    9   35 1
    17   10   15 ar
    18   10   11 ar
    19   11   12 ar
    20   11   36 1
    21   12   13 ar
    22   12   21 1
    23   13   14 ar
    24   13   37 1
    25   14   15 ar
    26   14   38 1
    27   15   16 1
    28   16   20 1
    29   16   17 1
    30   17   18 1
    31   17   39 1
    32   17   40 1
    33   18   19 1
    34   18   41 1
    35   18   42 1
    36   19   20 1
    37   19   43 1
    38   19   44 1
    39   20   45 1
    40   20   46 1
    41   21   22 2
    42   21   23 am
    43   23   47 1
    44   23   48 1
    45   24   25 am
    46   24   49 1
    47   25   26 2
    48   25   27 1
    49   27   28 1
    50   27   29 1
    51   27   30 1
    52   28   50 1
    53   28   51 1
    54   28   52 1
    55   29   53 1
    56   29   54 1
    57   29   55 1
    58   30   56 1
    59   30   57 1
    60   30   58 1
@<TRIPOS>MOLECULE
ZINC38748420
   50    53     0     0     0
SMALL
USER_CHARGES

@<TRIPOS>ATOM
      1 C1         -0.0184    1.5028    0.0103 C.3       1 <0>        -0.1247
      2 C2          0.0021   -0.0041    0.0020 C.ar      1 <0>        -0.0464
      3 C3          0.0056   -0.6858   -1.2025 C.ar      1 <0>        -0.1309
      4 C4          0.0238   -2.0645   -1.2184 C.ar      1 <0>        -0.0502
      5 C5          0.0392   -2.7739   -0.0132 C.ar      1 <0>        -0.1732
      6 C6          0.0359   -2.0776    1.1997 C.ar      1 <0>        -0.0698
      7 C7          0.0229   -0.6988    1.1989 C.ar      1 <0>        -0.1320
      8 C8          0.0582   -4.2454   -0.0213 C.2       1 <0>         0.4162
      9 O1          0.0605   -4.8459   -1.0747 O.2       1 <0>        -0.4224
     10 C9          0.0747   -5.0059    1.2796 C.3       1 <0>        -0.1580
     11 S1          0.0959   -6.7874    0.9383 S.3       1 <0>        -0.1693
     12 C10         0.1142   -7.5494    2.5844 C.3       1 <0>         0.1539
     13 H1          0.1403   -8.6352    2.4929 H         1 <0>         0.1400
     14 N1          1.2901   -7.0762    3.3497 N.3       1 <0>        -0.4751
     15 N2          0.7775   -5.9584    4.1576 N.3       1 <0>        -0.4759
     16 C11        -0.5802   -6.4211    4.5475 C.3       1 <0>         0.2595
     17 H2         -0.5220   -7.1005    5.3979 H         1 <0>         0.1096
     18 N3         -1.0807   -7.1340    3.3481 N.3       1 <0>        -0.3354
     19 N4         -1.8856   -8.2854    3.7232 N.3       1 <0>        -0.6409
     20 C12        -1.4783   -5.2273    4.8780 C.3       1 <0>        -0.0281
     21 H3         -1.6351   -4.6090    3.9942 H         1 <0>         0.1492
     22 C13        -0.8839   -4.4060    6.0083 C.2       1 <0>        -0.1405
     23 C14        -1.8104   -4.4806    6.9832 C.2       1 <0>         0.0131
     24 N5         -2.8662   -5.2337    6.5774 N.2       1 <0>        -0.1582
     25 N6         -2.7654   -5.6821    5.4294 N.2       1 <0>        -0.1064
     26 C15        -1.6944   -3.8323    8.3126 C.ar      1 <0>        -0.0441
     27 C16        -0.5669   -3.0749    8.6248 C.ar      1 <0>        -0.0710
     28 C17        -0.4634   -2.4733    9.8621 C.ar      1 <0>        -0.1535
     29 C18        -1.4780   -2.6218   10.7939 C.ar      1 <0>         0.1110
     30 C19        -2.6005   -3.3743   10.4880 C.ar      1 <0>        -0.1537
     31 C20        -2.7151   -3.9742    9.2509 C.ar      1 <0>        -0.0567
     32 F1         -1.3723   -2.0314   12.0045 F         1 <0>        -0.1352
     33 H4          1.0042    1.8801    0.0026 H         1 <0>         0.0786
     34 H5         -0.5455    1.8639   -0.8728 H         1 <0>         0.0726
     35 H6         -0.5286    1.8543    0.9071 H         1 <0>         0.0722
     36 H7         -0.0062   -0.1366   -2.1323 H         1 <0>         0.1328
     37 H8          0.0259   -2.5951   -2.1591 H         1 <0>         0.1367
     38 H9          0.0473   -2.6184    2.1344 H         1 <0>         0.1253
     39 H10         0.0248   -0.1596    2.1346 H         1 <0>         0.1315
     40 H11         0.9641   -4.7342    1.8480 H         1 <0>         0.1062
     41 H12        -0.8157   -4.7572    1.8571 H         1 <0>         0.1203
     42 H13         2.0244   -6.7676    2.7302 H         1 <0>         0.3661
     43 H14         0.7280   -5.1110    3.6122 H         1 <0>         0.3187
     44 H15        -2.1971   -8.7902    2.9069 H         1 <0>         0.3667
     45 H16        -1.3794   -8.8912    4.3516 H         1 <0>         0.3286
     46 H17         0.0613   -3.8838    6.0264 H         1 <0>         0.1779
     47 H18         0.2247   -2.9592    7.8993 H         1 <0>         0.1351
     48 H19         0.4100   -1.8862   10.1049 H         1 <0>         0.1416
     49 H20        -3.3888   -3.4877   11.2174 H         1 <0>         0.1423
     50 H21        -3.5925   -4.5568    9.0116 H         1 <0>         0.1458
@<TRIPOS>BOND
     1    1    2 1
     2    1   33 1
     3    1   34 1
     4    1   35 1
     5    2    7 ar
     6    2    3 ar
     7    3    4 ar
     8    3   36 1
     9    4    5 ar
    10    4   37 1
    11    5    6 ar
    12    5    8 1
    13    6    7 ar
    14    6   38 1
    15    7   39 1
    16    8    9 2
    17    8   10 1
    18   10   11 1
    19   10   40 1
    20   10   41 1
    21   11   12 1
    22   12   13 1
    23   12   18 1
    24   12   14 1
    25   14   15 1
    26   14   42 1
    27   15   16 1
    28   15   43 1
    29   16   17 1
    30   16   18 1
    31   16   20 1
    32   18   19 1
    33   19   44 1
    34   19   45 1
    35   20   21 1
    36   20   25 1
    37   20   22 1
    38   22   23 2
    39   22   46 1
    40   23   24 1
    41   23   26 1
    42   24   25 2
    43   26   31 ar
    44   26   27 ar
    45   27   28 ar
    46   27   47 1
    47   28   29 ar
    48   28   48 1
    49   29   30 ar
    50   29   32 1
    51   30   31 ar
    52   30   49 1
    53   31   50 1
@<TRIPOS>MOLECULE
ZINC16013194
   56    60     0     0     0
SMALL
USER_CHARGES

@<TRIPOS>ATOM
      1 C1         -0.0184    1.5028    0.0103 C.3       1 <0>        -0.1205
      2 C2          0.0021   -0.0041    0.0020 C.ar      1 <0>        -0.0398
      3 C3          0.0057   -0.6858   -1.2013 C.ar      1 <0>        -0.1376
      4 C4          0.0248   -2.0692   -1.2093 C.ar      1 <0>        -0.0563
      5 C5          0.0402   -2.7648   -0.0210 C.ar      1 <0>        -0.1491
      6 C6          0.0361   -2.0898    1.1961 C.ar      1 <0>         0.1729
      7 C7          0.0228   -0.6969    1.1945 C.ar      1 <0>        -0.1057
      8 C8          0.0258    0.0556    2.5002 C.3       1 <0>        -0.1175
      9 N1          0.0521   -3.0014    2.2541 N.am      1 <0>        -0.6524
     10 C9          0.0667   -4.2779    1.8241 C.2       1 <0>         0.5485
     11 O1          0.0796   -5.2745    2.5152 O.2       1 <0>        -0.4656
     12 C10         0.0635   -4.2276    0.3207 C.3       1 <0>         0.1300
     13 C11        -1.1492   -4.9617   -0.2626 C.3       1 <0>        -0.1380
     14 H1         -1.5976   -4.4274   -1.1002 H         1 <0>         0.1474
     15 C12        -0.6051   -6.3610   -0.6644 C.3       1 <0>        -0.1569
     16 H2         -0.7593   -6.5891   -1.7191 H         1 <0>         0.1441
     17 C13         0.8881   -6.3311   -0.2738 C.3       1 <0>         0.1016
     18 H3          1.0296   -6.7627    0.7170 H         1 <0>         0.1179
     19 N2          1.2516   -4.8962   -0.2421 N.3       1 <0>        -0.6007
     20 C14         1.7241   -7.0882   -1.3076 C.3       1 <0>        -0.1427
     21 C15         3.1570   -7.1522   -0.8454 C.2       1 <0>         0.5136
     22 O2          3.4780   -6.6424    0.2073 O.2       1 <0>        -0.5150
     23 N3          4.0819   -7.7759   -1.6018 N.am      1 <0>        -0.8600
     24 C16        -1.3537   -7.3019    0.2523 C.2       1 <0>         0.5454
     25 O3         -1.2303   -8.5078    0.2707 O.2       1 <0>        -0.4693
     26 N4         -2.1731   -6.5966    1.0404 N.am      1 <0>        -0.5606
     27 C17        -2.1450   -5.2602    0.8348 C.2       1 <0>         0.5393
     28 O4         -2.8028   -4.4325    1.4281 O.2       1 <0>        -0.4589
     29 C18        -3.0394   -7.2212    2.0433 C.3       1 <0>         0.1423
     30 C19        -2.3030   -7.3148    3.3548 C.ar      1 <0>        -0.1233
     31 C20        -1.5437   -8.4338    3.6422 C.ar      1 <0>        -0.0616
     32 C21        -0.8676   -8.5206    4.8444 C.ar      1 <0>        -0.1551
     33 C22        -0.9509   -7.4863    5.7612 C.ar      1 <0>         0.1116
     34 C23        -1.7117   -6.3661    5.4722 C.ar      1 <0>        -0.1534
     35 C24        -2.3827   -6.2792    4.2672 C.ar      1 <0>        -0.0556
     36 F1         -0.2907   -7.5703    6.9369 F         1 <0>        -0.1394
     37 H4          1.0042    1.8801    0.0026 H         1 <0>         0.0766
     38 H5         -0.5455    1.8639   -0.8728 H         1 <0>         0.0722
     39 H6         -0.5286    1.8543    0.9071 H         1 <0>         0.0722
     40 H7         -0.0066   -0.1394   -2.1328 H         1 <0>         0.1330
     41 H8          0.0272   -2.6036   -2.1478 H         1 <0>         0.1283
     42 H9         -1.0010    0.2236    2.8251 H         1 <0>         0.0735
     43 H10         0.5547   -0.5273    3.2543 H         1 <0>         0.0614
     44 H11         0.5259    1.0147    2.3657 H         1 <0>         0.0764
     45 H12         0.0529   -2.7452    3.1897 H         1 <0>         0.4159
     46 H13         1.4470   -4.5622   -1.1739 H         1 <0>         0.3499
     47 H14         1.3333   -8.0994   -1.4208 H         1 <0>         0.1137
     48 H15         1.6740   -6.5700   -2.2653 H         1 <0>         0.1022
     49 H16         3.8252   -8.1836   -2.4437 H         1 <0>         0.4002
     50 H17         5.0042   -7.8171   -1.3042 H         1 <0>         0.4028
     51 H18        -3.9380   -6.6181    2.1735 H         1 <0>         0.1034
     52 H19        -3.3179   -8.2211    1.7108 H         1 <0>         0.1062
     53 H20        -1.4792   -9.2406    2.9271 H         1 <0>         0.1342
     54 H21        -0.2748   -9.3950    5.0688 H         1 <0>         0.1356
     55 H22        -1.7776   -5.5589    6.1867 H         1 <0>         0.1334
     56 H23        -2.9725   -5.4036    4.0397 H         1 <0>         0.1293
@<TRIPOS>BOND
     1    1    2 1
     2    1   37 1
     3    1   38 1
     4    1   39 1
     5    2    7 ar
     6    2    3 ar
     7    3    4 ar
     8    3   40 1
     9    4    5 ar
    10    4   41 1
    11    5   12 1
    12    5    6 ar
    13    6    7 ar
    14    6    9 1
    15    7    8 1
    16    8   42 1
    17    8   43 1
    18    8   44 1
    19    9   10 am
    20    9   45 1
    21   10   11 2
    22   10   12 1
    23   12   19 1
    24   12   13 1
    25   13   14 1
    26   13   27 1
    27   13   15 1
    28   15   16 1
    29   15   17 1
    30   15   24 1
    31   17   18 1
    32   17   19 1
    33   17   20 1
    34   19   46 1
    35   20   21 1
    36   20   47 1
    37   20   48 1
    38   21   22 2
    39   21   23 am
    40   23   49 1
    41   23   50 1
    42   24   25 2
    43   24   26 am
    44   26   27 am
    45   26   29 1
    46   27   28 2
    47   29   30 1
    48   29   51 1
    49   29   52 1
    50   30   35 ar
    51   30   31 ar
    52   31   32 ar
    53   31   53 1
    54   32   33 ar
    55   32   54 1
    56   33   34 ar
    57   33   36 1
    58   34   35 ar
    59   34   55 1
    60   35   56 1
@<TRIPOS>MOLECULE
ZINC29063180
   44    46     0     0     0
SMALL
USER_CHARGES

@<TRIPOS>ATOM
      1 C1         -0.0187    1.5258    0.0104 C.3       1 <0>        -0.1398
      2 C2          0.0021   -0.0041    0.0020 C.3       1 <0>        -0.0304
      3 C3          0.7421   -0.5109    1.2415 C.3       1 <0>        -0.1398
      4 C4         -1.4333   -0.5336    0.0129 C.3       1 <0>        -0.1456
      5 C5          0.7074   -0.4901   -1.2379 C.ar      1 <0>        -0.0285
      6 C6          0.0262   -1.2881   -2.1487 C.ar      1 <0>        -0.1464
      7 C7          0.6463   -1.7391   -3.2773 C.ar      1 <0>        -0.0536
      8 C8          1.9821   -1.3957   -3.5231 C.ar      1 <0>        -0.1280
      9 C9          2.8858   -1.6941   -4.5714 C.2       1 <0>        -0.0821
     10 C10         4.0671   -1.0871   -4.2846 C.2       1 <0>         0.0079
     11 N1          3.9490   -0.4096   -3.0865 N.pl3     1 <0>        -0.5817
     12 H1          4.6499    0.1062   -2.6580 H         1 <0>         0.4180
     13 C11         2.6748   -0.5864   -2.6015 C.ar      1 <0>         0.1273
     14 C12         2.0188   -0.1344   -1.4597 C.ar      1 <0>        -0.1339
     15 C13         5.2783   -1.1429   -5.1168 C.2       1 <0>         0.5915
     16 O1          5.2724   -1.7716   -6.1582 O.2       1 <0>        -0.5194
     17 N2          6.3949   -0.4974   -4.7256 N.am      1 <0>        -0.5191
     18 N3          7.5488   -0.5506   -5.5184 N.am      1 <0>        -0.5214
     19 C14         8.6655    0.0949   -5.1272 C.2       1 <0>         0.5970
     20 O2          8.6714    0.7238   -4.0854 O.2       1 <0>        -0.5197
     21 C15         9.8735    0.0393   -5.9571 C.2       1 <0>        -0.0476
     22 C16        11.0816    0.6429   -5.6791 C.2       1 <0>        -0.0594
     23 C17        11.9489    0.3308   -6.7313 C.2       1 <0>        -0.1847
     24 C18        11.2701   -0.4410   -7.6142 C.2       1 <0>         0.0798
     25 N4         10.0092   -0.6299   -7.1523 N.pl3     1 <0>        -0.5321
     26 H2          9.3174   -1.1485   -7.5920 H         1 <0>         0.4251
     27 Br1        13.7487    0.8880   -6.8933 Br        1 <0>        -0.0156
     28 H3          1.0039    1.9031    0.0027 H         1 <0>         0.0563
     29 H4         -0.5459    1.8868   -0.8726 H         1 <0>         0.0580
     30 H5         -0.5289    1.8773    0.9072 H         1 <0>         0.0604
     31 H6          0.2319   -0.1594    2.1383 H         1 <0>         0.0604
     32 H7          0.7568   -1.6008    1.2356 H         1 <0>         0.0579
     33 H8          1.7647   -0.1336    1.2338 H         1 <0>         0.0563
     34 H9         -1.9605   -0.1726   -0.8702 H         1 <0>         0.0607
     35 H10        -1.4185   -1.6235    0.0069 H         1 <0>         0.0606
     36 H11        -1.9435   -0.1821    0.9097 H         1 <0>         0.0597
     37 H12        -1.0036   -1.5541   -1.9614 H         1 <0>         0.1319
     38 H13         0.1088   -2.3595   -3.9791 H         1 <0>         0.1281
     39 H14         2.6742   -2.2964   -5.4425 H         1 <0>         0.1592
     40 H15         2.5383    0.4903   -0.7481 H         1 <0>         0.1238
     41 H16         6.3996    0.0039   -3.8952 H         1 <0>         0.4305
     42 H17         7.5441   -1.0519   -6.3488 H         1 <0>         0.4289
     43 H18        11.3143    1.2439   -4.8125 H         1 <0>         0.1621
     44 H19        11.6691   -0.8432   -8.5337 H         1 <0>         0.1875
@<TRIPOS>BOND
     1    1    2 1
     2    1   28 1
     3    1   29 1
     4    1   30 1
     5    2    3 1
     6    2    4 1
     7    2    5 1
     8    3   31 1
     9    3   32 1
    10    3   33 1
    11    4   34 1
    12    4   35 1
    13    4   36 1
    14    5   14 ar
    15    5    6 ar
    16    6    7 ar
    17    6   37 1
    18    7    8 ar
    19    7   38 1
    20    8   13 ar
    21    8    9 1
    22    9   10 2
    23    9   39 1
    24   10   11 1
    25   10   15 1
    26   11   12 1
    27   11   13 1
    28   13   14 ar
    29   14   40 1
    30   15   16 2
    31   15   17 am
    32   17   18 1
    33   17   41 1
    34   18   19 am
    35   18   42 1
    36   19   20 2
    37   19   21 1
    38   21   25 1
    39   21   22 2
    40   22   23 1
    41   22   43 1
    42   23   24 2
    43   23   27 1
    44   24   25 1
    45   24   44 1
    46   25   26 1
@<TRIPOS>MOLECULE
ZINC02791081
   45    48     0     0     0
SMALL
USER_CHARGES
2-cyclopropyl-4-(difluoromethyl)-9-(4-methylbenzoyl)amino-7-thia-5-azabicyclo[4.3.0]nona-2,4,8,10-tetraene-8-carboxamide
@<TRIPOS>ATOM
      1 C1          9.3741    1.5127    1.5219 C.3       1 <0>        -0.1218
      2 C2          8.0627    2.2189    1.2928 C.ar      1 <0>        -0.0564
      3 C3          8.0409    3.5912    1.1170 C.ar      1 <0>        -0.1271
      4 C4          6.8438    4.2439    0.9073 C.ar      1 <0>        -0.0487
      5 C5          5.6527    3.5167    0.8722 C.ar      1 <0>        -0.1342
      6 C6          5.6813    2.1330    1.0551 C.ar      1 <0>        -0.0856
      7 C7          6.8858    1.4921    1.2587 C.ar      1 <0>        -0.1271
      8 C8          4.3664    4.2094    0.6485 C.2       1 <0>         0.5762
      9 O1          4.3441    5.4150    0.4946 O.2       1 <0>        -0.4922
     10 N1          3.2182    3.5044    0.6152 N.am      1 <0>        -0.6676
     11 C9          2.0246    4.1347    0.2802 C.2       1 <0>         0.2063
     12 C10         1.2299    3.6746   -0.8477 C.ar      1 <0>        -0.1334
     13 C11         1.4911    2.6009   -1.7353 C.ar      1 <0>         0.0584
     14 C12         0.5952    2.3372   -2.7441 C.ar      1 <0>        -0.1486
     15 C13        -0.5439    3.1150   -2.8922 C.ar      1 <0>         0.1022
     16 N2         -0.7865    4.1096   -2.0613 N.ar      1 <0>        -0.4210
     17 C14         0.0405    4.4018   -1.0805 C.ar      1 <0>         0.1064
     18 S1          0.0412    5.6398    0.1925 S.3       1 <0>         0.1568
     19 C15         1.5664    5.2098    1.0076 C.2       1 <0>        -0.1958
     20 C16         2.1834    5.8465    2.1705 C.2       1 <0>         0.6100
     21 O2          3.2988    5.5130    2.5268 O.2       1 <0>        -0.4998
     22 N3          1.5173    6.8026    2.8478 N.am      1 <0>        -0.8455
     23 C17        -1.5139    2.8171   -4.0065 C.3       1 <0>         0.3280
     24 F1         -0.8596    2.9329   -5.2377 F         1 <0>        -0.1863
     25 F2         -2.0063    1.5158   -3.8607 F         1 <0>        -0.1868
     26 C18         2.7319    1.7608   -1.5753 C.3       1 <0>        -0.1509
     27 C19         2.9782    0.6604   -2.6094 C.3       1 <0>        -0.1625
     28 C20         2.5457    0.2922   -1.1888 C.3       1 <0>        -0.1583
     29 H1          9.5822    1.4707    2.5910 H         1 <0>         0.0766
     30 H2          9.3160    0.5001    1.1229 H         1 <0>         0.0704
     31 H3         10.1727    2.0567    1.0175 H         1 <0>         0.0709
     32 H4          8.9631    4.1526    1.1444 H         1 <0>         0.1315
     33 H5          6.8282    5.3150    0.7702 H         1 <0>         0.1369
     34 H6          4.7629    1.5651    1.0336 H         1 <0>         0.1217
     35 H7          6.9098    0.4211    1.3959 H         1 <0>         0.1300
     36 H8          3.2243    2.5573    0.8249 H         1 <0>         0.4113
     37 H9          0.7815    1.5224   -3.4280 H         1 <0>         0.1539
     38 H10         0.6287    7.0683    2.5639 H         1 <0>         0.4007
     39 H11         1.9266    7.2249    3.6192 H         1 <0>         0.4127
     40 H12        -2.3414    3.5254   -3.9668 H         1 <0>         0.1388
     41 H13         3.6028    2.2800   -1.1752 H         1 <0>         0.1273
     42 H14         2.2428    0.5441   -3.4055 H         1 <0>         0.1037
     43 H15         4.0114    0.4556   -2.8900 H         1 <0>         0.1084
     44 H16         3.2944   -0.1549   -0.5347 H         1 <0>         0.1077
     45 H17         1.5258   -0.0664   -1.0502 H         1 <0>         0.1028
@<TRIPOS>BOND
     1    1    2 1
     2    1   29 1
     3    1   30 1
     4    1   31 1
     5    2    7 ar
     6    2    3 ar
     7    3    4 ar
     8    3   32 1
     9    4    5 ar
    10    4   33 1
    11    5    6 ar
    12    5    8 1
    13    6    7 ar
    14    6   34 1
    15    7   35 1
    16    8    9 2
    17    8   10 am
    18   10   11 1
    19   10   36 1
    20   11   19 2
    21   11   12 1
    22   12   17 ar
    23   12   13 ar
    24   13   14 ar
    25   13   26 1
    26   14   15 ar
    27   14   37 1
    28   15   16 ar
    29   15   23 1
    30   16   17 ar
    31   17   18 1
    32   18   19 1
    33   19   20 1
    34   20   21 2
    35   20   22 am
    36   22   38 1
    37   22   39 1
    38   23   24 1
    39   23   25 1
    40   23   40 1
    41   26   28 1
    42   26   27 1
    43   26   41 1
    44   27   28 1
    45   27   42 1
    46   27   43 1
    47   28   44 1
    48   28   45 1
@<TRIPOS>MOLECULE
ZINC20696775
   55    58     0     0     0
SMALL
USER_CHARGES
(3aR,4R,9bR)-4-(4-diethylaminophenyl)-3a,4,5,9b-tetrahydro-3H-cyclopenta[c]quinoline-8-sulfonamide
@<TRIPOS>ATOM
      1 C1          8.5989    3.5382   -0.1883 C.3       1 <0>        -0.1744
      2 C2          8.4217    2.8983    1.1901 C.3       1 <0>         0.1157
      3 N1          7.3165    3.5534    1.8942 N.pl3     1 <0>        -0.6254
      4 C3          7.5766    4.7205    2.7405 C.3       1 <0>         0.1154
      5 C4          7.8746    4.2589    4.1684 C.3       1 <0>        -0.1743
      6 C5          6.0150    3.0651    1.7586 C.ar      1 <0>         0.2266
      7 C6          4.9659    3.6851    2.4255 C.ar      1 <0>        -0.1963
      8 C7          3.6802    3.1994    2.2895 C.ar      1 <0>        -0.0536
      9 C8          3.4366    2.0973    1.4906 C.ar      1 <0>        -0.1626
     10 C9          4.4794    1.4743    0.8298 C.ar      1 <0>        -0.0563
     11 C10         5.7667    1.9582    0.9568 C.ar      1 <0>        -0.1977
     12 C11         2.0323    1.5702    1.3447 C.3       1 <0>         0.2059
     13 H1          1.4428    1.9561    2.1894 H         1 <0>         0.0761
     14 C12         1.4573    1.9750   -0.0012 C.3       1 <0>        -0.0835
     15 H2          2.2068    1.6083   -0.7180 H         1 <0>         0.1024
     16 C13         1.1613    3.4659   -0.2142 C.3       1 <0>        -0.0810
     17 C14        -0.0023    3.4102   -1.2060 C.2       1 <0>        -0.1691
     18 C15        -0.6530    2.2601   -1.0784 C.2       1 <0>        -0.1658
     19 C16        -0.0180    1.4743    0.0101 C.3       1 <0>        -0.0190
     20 H3         -0.6865    1.6234    0.8709 H         1 <0>         0.0973
     21 C17         0.0021   -0.0041    0.0020 C.ar      1 <0>        -0.1698
     22 C18        -0.9481   -0.7543   -0.6563 C.ar      1 <0>         0.0325
     23 C19        -0.8940   -2.1352   -0.6220 C.ar      1 <0>        -0.7183
     24 C20         0.1169   -2.7702    0.0761 C.ar      1 <0>         0.0191
     25 C21         1.0762   -2.0285    0.7340 C.ar      1 <0>        -0.2176
     26 C22         1.0349   -0.6398    0.7003 C.ar      1 <0>         0.2800
     27 N2          2.0390    0.0910    1.3468 N.pl3     1 <0>        -0.7403
     28 S1         -2.1132   -3.0860   -1.4671 S.o2      1 <0>         2.6386
     29 O1         -2.1536   -4.3546   -0.8282 O.2       1 <0>        -0.9938
     30 O2         -3.2614   -2.2577   -1.5894 O.2       1 <0>        -0.9596
     31 N3         -1.5523   -3.3473   -3.0031 N.pl3     1 <0>        -1.1650
     32 H4          9.4287    3.0463   -0.7169 H         1 <0>         0.0655
     33 H5          8.8229    4.6086   -0.0696 H         1 <0>         0.0568
     34 H6          7.6724    3.4197   -0.7694 H         1 <0>         0.0589
     35 H7          8.1977    1.8279    1.0714 H         1 <0>         0.0760
     36 H8          9.3482    3.0167    1.7712 H         1 <0>         0.0746
     37 H9          8.4415    5.2740    2.3461 H         1 <0>         0.0747
     38 H10         6.6928    5.3753    2.7438 H         1 <0>         0.0767
     39 H11         8.0699    5.1353    4.8038 H         1 <0>         0.0657
     40 H12         8.7585    3.6041    4.1651 H         1 <0>         0.0565
     41 H13         7.0097    3.7054    4.5628 H         1 <0>         0.0588
     42 H14         5.1555    4.5456    3.0498 H         1 <0>         0.1235
     43 H15         2.8641    3.6812    2.8075 H         1 <0>         0.1208
     44 H16         4.2864    0.6109    0.2104 H         1 <0>         0.1195
     45 H17         6.5801    1.4739    0.4369 H         1 <0>         0.1220
     46 H18         0.8907    3.9270    0.7471 H         1 <0>         0.0800
     47 H19         2.0547    3.9627   -0.6205 H         1 <0>         0.0733
     48 H20        -0.3338    4.1501   -1.9494 H         1 <0>         0.1318
     49 H21        -1.5097    2.0375   -1.7315 H         1 <0>         0.1353
     50 H22        -1.7392   -0.2610   -1.2015 H         1 <0>         0.1370
     51 H23         0.1557   -3.8491    0.1060 H         1 <0>         0.1367
     52 H24         1.8633   -2.5295    1.2779 H         1 <0>         0.1288
     53 H25         2.8428   -0.4546    1.8627 H         1 <0>         0.4236
     54 H26        -2.2880   -3.9403   -3.5662 H         1 <0>         0.4101
     55 H27        -0.5987   -3.8937   -2.9572 H         1 <0>         0.4071
@<TRIPOS>BOND
     1    1    2 1
     2    1   32 1
     3    1   33 1
     4    1   34 1
     5    2    3 1
     6    2   35 1
     7    2   36 1
     8    3    4 1
     9    3    6 1
    10    4    5 1
    11    4   37 1
    12    4   38 1
    13    5   39 1
    14    5   40 1
    15    5   41 1
    16    6   11 ar
    17    6    7 ar
    18    7    8 ar
    19    7   42 1
    20    8    9 ar
    21    8   43 1
    22    9   10 ar
    23    9   12 1
    24   10   11 ar
    25   10   44 1
    26   11   45 1
    27   12   13 1
    28   12   27 1
    29   12   14 1
    30   14   15 1
    31   14   19 1
    32   14   16 1
    33   16   17 1
    34   16   46 1
    35   16   47 1
    36   17   18 2
    37   17   48 1
    38   18   19 1
    39   18   49 1
    40   19   20 1
    41   19   21 1
    42   21   26 ar
    43   21   22 ar
    44   22   23 ar
    45   22   50 1
    46   23   24 ar
    47   23   28 1
    48   24   25 ar
    49   24   51 1
    50   25   26 ar
    51   25   52 1
    52   26   27 1
    53   27   53 1
    54   28   29 2
    55   28   30 2
    56   28   31 1
    57   31   54 1
    58   31   55 1
@<TRIPOS>MOLECULE
ZINC30839898
   47    48     0     0     0
SMALL
USER_CHARGES

@<TRIPOS>ATOM
      1 C1          0.3186    2.0386    0.2854 C.3       1 <0>        -0.1593
      2 C2          0.1487    0.5229    0.1640 C.3       1 <0>         0.1846
      3 H1         -0.9128    0.2749    0.1664 H         1 <0>         0.1017
      4 C3          0.7723    0.0490   -1.1235 C.ar      1 <0>        -0.0859
      5 C4          2.1400   -0.1382   -1.2011 C.ar      1 <0>        -0.1010
      6 C5          2.7126   -0.5728   -2.3817 C.ar      1 <0>        -0.1071
      7 C6          1.9179   -0.8205   -3.4854 C.ar      1 <0>        -0.0894
      8 C7          0.5497   -0.6338   -3.4080 C.ar      1 <0>        -0.0855
      9 C8         -0.0235   -0.2038   -2.2246 C.ar      1 <0>        -0.0782
     10 Br1        -0.5378   -0.9719   -4.9177 Br        1 <0>        -0.0444
     11 N1          0.8062   -0.1345    1.2961 N.am      1 <0>        -0.7229
     12 C9          0.1488   -0.2842    2.4631 C.2       1 <0>         0.5626
     13 O1         -0.9897    0.1262    2.5762 O.2       1 <0>        -0.5249
     14 C10         0.8125   -0.9476    3.6057 C.ar      1 <0>        -0.1160
     15 C11         2.1222   -1.4148    3.4801 C.ar      1 <0>        -0.1057
     16 C12         2.7392   -2.0336    4.5479 C.ar      1 <0>        -0.1035
     17 C13         2.0647   -2.1938    5.7441 C.ar      1 <0>        -0.1225
     18 C14         0.7611   -1.7324    5.8792 C.ar      1 <0>         0.1616
     19 C15         0.1344   -1.1037    4.8143 C.ar      1 <0>        -0.0605
     20 N2          0.0826   -1.8971    7.0924 N.am      1 <0>        -0.6877
     21 C16        -1.2496   -2.1011    7.0971 C.2       1 <0>         0.7013
     22 O2         -1.8474   -2.2385    6.0473 O.2       1 <0>        -0.5641
     23 N3         -1.9193   -2.1527    8.2656 N.am      1 <0>        -0.7361
     24 C17        -3.3674   -2.3744    8.2708 C.3       1 <0>         0.1529
     25 C18        -3.7832   -2.9972    9.6050 C.3       1 <0>        -0.1615
     26 C19        -4.0886   -1.0379    8.0850 C.3       1 <0>        -0.1664
     27 H2          1.3800    2.2865    0.2830 H         1 <0>         0.0607
     28 H3         -0.1707    2.5277   -0.5569 H         1 <0>         0.0705
     29 H4         -0.1325    2.3813    1.2166 H         1 <0>         0.0689
     30 H5          2.7612    0.0555   -0.3391 H         1 <0>         0.1274
     31 H6          3.7810   -0.7186   -2.4420 H         1 <0>         0.1355
     32 H7          2.3655   -1.1594   -4.4080 H         1 <0>         0.1350
     33 H8         -1.0923   -0.0615   -2.1626 H         1 <0>         0.1364
     34 H9          1.7148   -0.4620    1.2058 H         1 <0>         0.3990
     35 H10         2.6521   -1.2921    2.5471 H         1 <0>         0.1251
     36 H11         3.7523   -2.3943    4.4488 H         1 <0>         0.1348
     37 H12         2.5526   -2.6796    6.5761 H         1 <0>         0.1313
     38 H13        -0.8771   -0.7401    4.9189 H         1 <0>         0.1508
     39 H14         0.5712   -1.8644    7.9297 H         1 <0>         0.4084
     40 H15        -1.4424   -2.0430    9.1032 H         1 <0>         0.3970
     41 H16        -3.6348   -3.0478    7.4565 H         1 <0>         0.0907
     42 H17        -3.5159   -2.3238   10.4193 H         1 <0>         0.0614
     43 H18        -4.8607   -3.1622    9.6088 H         1 <0>         0.0762
     44 H19        -3.2694   -3.9494    9.7373 H         1 <0>         0.0620
     45 H20        -3.8213   -0.3645    8.8994 H         1 <0>         0.0562
     46 H21        -3.7924   -0.5942    7.1345 H         1 <0>         0.0626
     47 H22        -5.1661   -1.2029    8.0889 H         1 <0>         0.0679
@<TRIPOS>BOND
     1    1    2 1
     2    1   27 1
     3    1   28 1
     4    1   29 1
     5    2    3 1
     6    2    4 1
     7    2   11 1
     8    4    9 ar
     9    4    5 ar
    10    5    6 ar
    11    5   30 1
    12    6    7 ar
    13    6   31 1
    14    7    8 ar
    15    7   32 1
    16    8    9 ar
    17    8   10 1
    18    9   33 1
    19   11   12 am
    20   11   34 1
    21   12   13 2
    22   12   14 1
    23   14   19 ar
    24   14   15 ar
    25   15   16 ar
    26   15   35 1
    27   16   17 ar
    28   16   36 1
    29   17   18 ar
    30   17   37 1
    31   18   19 ar
    32   18   20 1
    33   19   38 1
    34   20   21 am
    35   20   39 1
    36   21   22 2
    37   21   23 am
    38   23   24 1
    39   23   40 1
    40   24   25 1
    41   24   26 1
    42   24   41 1
    43   25   42 1
    44   25   43 1
    45   25   44 1
    46   26   45 1
    47   26   46 1
    48   26   47 1
@<TRIPOS>MOLECULE
ZINC57531382
   49    51     0     0     0
SMALL
USER_CHARGES

@<TRIPOS>ATOM
      1 C1         -0.1404   -0.7606    1.2807 C.3       1 <0>         0.0894
      2 N1         -0.0384   -0.0204    0.0206 N.pl3     1 <0>        -0.6339
      3 C2          0.0561    1.4415    0.0354 C.3       1 <0>         0.0920
      4 C3         -0.0314   -0.7084   -1.1949 C.ar      1 <0>         0.2308
      5 C4          0.0710   -0.0085   -2.3904 C.ar      1 <0>        -0.1925
      6 C5          0.0782   -0.6919   -3.5905 C.ar      1 <0>        -0.0467
      7 C6         -0.0169   -2.0714   -3.6029 C.ar      1 <0>        -0.1847
      8 C7         -0.1190   -2.7713   -2.4146 C.ar      1 <0>        -0.0462
      9 C8         -0.1210   -2.0946   -1.2108 C.ar      1 <0>        -0.1975
     10 C9         -0.0098   -2.8137   -4.9144 C.3       1 <0>         0.1693
     11 H1          0.4345   -3.7990   -4.7729 H         1 <0>         0.1250
     12 C10        -1.4469   -2.9683   -5.4232 C.3       1 <0>        -0.1499
     13 H2         -2.0120   -3.5998   -4.7377 H         1 <0>         0.1462
     14 C11        -1.4062   -3.6210   -6.8091 C.3       1 <0>         0.3190
     15 N2         -0.5509   -2.8243   -7.6902 N.pl3     1 <0>        -0.6919
     16 C12         0.4731   -2.1060   -7.2058 C.2       1 <0>         0.5996
     17 S1          1.4389   -1.2103   -8.2993 S.2       1 <0>        -0.6152
     18 N3          0.7710   -2.0616   -5.8980 N.pl3     1 <0>        -0.6459
     19 C13        -0.8401   -5.0374   -6.6908 C.3       1 <0>         0.4208
     20 F1         -1.6542   -5.7957   -5.8426 F         1 <0>        -0.1599
     21 F2         -0.8034   -5.6322   -7.9565 F         1 <0>        -0.1670
     22 F3          0.4551   -4.9796   -6.1650 F         1 <0>        -0.1633
     23 O1         -2.7279   -3.6772   -7.3495 O.3       1 <0>        -0.5037
     24 C14        -2.0991   -1.6130   -5.5169 C.2       1 <0>         0.4222
     25 O2         -1.4445   -0.6465   -5.8450 O.2       1 <0>        -0.4182
     26 C15        -3.5306   -1.4624   -5.2101 C.ar      1 <0>        -0.1588
     27 C16        -4.2877   -2.5737   -4.8257 C.ar      1 <0>        -0.0622
     28 C17        -5.6283   -2.4244   -4.5395 C.ar      1 <0>        -0.1319
     29 C18        -6.2248   -1.1789   -4.6318 C.ar      1 <0>        -0.0833
     30 C19        -5.4824   -0.0744   -5.0120 C.ar      1 <0>        -0.1322
     31 C20        -4.1395   -0.2063   -5.2959 C.ar      1 <0>        -0.0561
     32 H3         -1.1903   -0.8775    1.5495 H         1 <0>         0.0508
     33 H4          0.3160   -1.7434    1.1627 H         1 <0>         0.0703
     34 H5          0.3771   -0.2118    2.0674 H         1 <0>         0.0694
     35 H6          0.0353    1.7965    1.0657 H         1 <0>         0.0757
     36 H7          0.9890    1.7500   -0.4364 H         1 <0>         0.0571
     37 H8         -0.7856    1.8656   -0.5121 H         1 <0>         0.0562
     38 H9          0.1446    1.0690   -2.3814 H         1 <0>         0.1250
     39 H10         0.1578   -0.1483   -4.5203 H         1 <0>         0.1366
     40 H11        -0.1931   -3.8487   -2.4278 H         1 <0>         0.1259
     41 H12        -0.1962   -2.6421   -0.2829 H         1 <0>         0.1280
     42 H13        -0.7280   -2.8159   -8.6439 H         1 <0>         0.4388
     43 H14         1.5179   -1.5201   -5.5981 H         1 <0>         0.4391
     44 H15        -2.7771   -4.0796   -8.2274 H         1 <0>         0.4037
     45 H16        -3.8237   -3.5463   -4.7536 H         1 <0>         0.1278
     46 H17        -6.2144   -3.2816   -4.2429 H         1 <0>         0.1305
     47 H18        -7.2752   -1.0683   -4.4063 H         1 <0>         0.1287
     48 H19        -5.9551    0.8941   -5.0821 H         1 <0>         0.1302
     49 H20        -3.5605    0.6572   -5.5881 H         1 <0>         0.1326
@<TRIPOS>BOND
     1    1    2 1
     2    1   32 1
     3    1   33 1
     4    1   34 1
     5    2    3 1
     6    2    4 1
     7    3   35 1
     8    3   36 1
     9    3   37 1
    10    4    9 ar
    11    4    5 ar
    12    5    6 ar
    13    5   38 1
    14    6    7 ar
    15    6   39 1
    16    7    8 ar
    17    7   10 1
    18    8    9 ar
    19    8   40 1
    20    9   41 1
    21   10   11 1
    22   10   18 1
    23   10   12 1
    24   12   13 1
    25   12   14 1
    26   12   24 1
    27   14   15 1
    28   14   19 1
    29   14   23 1
    30   15   16 1
    31   15   42 1
    32   16   17 2
    33   16   18 1
    34   18   43 1
    35   19   20 1
    36   19   21 1
    37   19   22 1
    38   23   44 1
    39   24   25 2
    40   24   26 1
    41   26   31 ar
    42   26   27 ar
    43   27   28 ar
    44   27   45 1
    45   28   29 ar
    46   28   46 1
    47   29   30 ar
    48   29   47 1
    49   30   31 ar
    50   30   48 1
    51   31   49 1
@<TRIPOS>MOLECULE
ZINC66344426
   50    52     0     0     0
SMALL
USER_CHARGES

@<TRIPOS>ATOM
      1 C1         -0.0167    1.3782    0.0096 C.ar      1 <0>        -0.0920
      2 C2          1.1706    2.0858    0.0021 C.ar      1 <0>        -0.1072
      3 C3          2.3780    1.4104   -0.0130 C.ar      1 <0>        -0.0303
      4 C4          2.3961    0.0270   -0.0206 C.ar      1 <0>        -0.1059
      5 C5          1.2082   -0.6795   -0.0130 C.ar      1 <0>        -0.0956
      6 C6          0.0021   -0.0041    0.0020 C.ar      1 <0>        -0.1159
      7 C7         -1.2928   -0.7750    0.0107 C.3       1 <0>         0.1399
      8 H1         -2.0954   -0.1329    0.3736 H         1 <0>         0.1176
      9 C8         -1.6169   -1.2434   -1.4093 C.3       1 <0>         0.1120
     10 N1         -2.9322   -1.8886   -1.4224 N.am      1 <0>        -0.7419
     11 C9         -3.4290   -2.3827   -2.5737 C.2       1 <0>         0.7045
     12 O1         -2.7856   -2.2930   -3.6015 O.2       1 <0>        -0.5881
     13 N2         -4.6390   -2.9762   -2.5857 N.am      1 <0>        -0.7443
     14 C10        -5.1790   -3.5133   -3.8372 C.3       1 <0>         0.1503
     15 C11        -6.5554   -4.1285   -3.5763 C.3       1 <0>        -0.1145
     16 H2         -7.2177   -3.4089   -3.0950 H         1 <0>         0.0935
     17 C12        -6.4343   -5.4243   -2.7316 C.3       1 <0>        -0.1270
     18 C13        -7.6908   -6.2218   -3.1401 C.3       1 <0>         0.1129
     19 N3         -8.1201   -5.7177   -4.4528 N.pl3     1 <0>        -0.6351
     20 C14        -7.1800   -4.6678   -4.8872 C.3       1 <0>         0.1217
     21 C15        -9.2350   -6.1606   -5.1710 C.ar      1 <0>         0.2278
     22 C16        -9.5305   -5.6049   -6.4089 C.ar      1 <0>        -0.1685
     23 C17       -10.6321   -6.0443   -7.1168 C.ar      1 <0>        -0.1017
     24 C18       -11.4416   -7.0380   -6.5931 C.ar      1 <0>         0.0357
     25 C19       -11.1489   -7.5935   -5.3589 C.ar      1 <0>        -0.1021
     26 C20       -10.0454   -7.1609   -4.6499 C.ar      1 <0>        -0.1678
     27 F1        -12.5189   -7.4660   -7.2870 F         1 <0>        -0.1457
     28 O2         -1.1656   -1.9101    0.8694 O.3       1 <0>        -0.5491
     29 Cl1         3.8696    2.2984   -0.0231 Cl        1 <0>        -0.0642
     30 H3         -0.9592    1.9053    0.0259 H         1 <0>         0.1356
     31 H4          1.1558    3.1656    0.0076 H         1 <0>         0.1374
     32 H5          3.3383   -0.5007   -0.0327 H         1 <0>         0.1372
     33 H6          1.2222   -1.7594   -0.0193 H         1 <0>         0.1315
     34 H7         -1.6264   -0.3856   -2.0817 H         1 <0>         0.0796
     35 H8         -0.8599   -1.9551   -1.7388 H         1 <0>         0.0730
     36 H9         -3.4455   -1.9601   -0.6024 H         1 <0>         0.4008
     37 H10        -5.1523   -3.0478   -1.7658 H         1 <0>         0.3971
     38 H11        -5.2728   -2.7093   -4.5671 H         1 <0>         0.0719
     39 H12        -4.5064   -4.2787   -4.2242 H         1 <0>         0.0718
     40 H13        -5.5285   -5.9716   -2.9926 H         1 <0>         0.0813
     41 H14        -6.4534   -5.1936   -1.6665 H         1 <0>         0.0834
     42 H15        -7.4498   -7.2825   -3.2111 H         1 <0>         0.0643
     43 H16        -8.4823   -6.0676   -2.4068 H         1 <0>         0.0635
     44 H17        -7.7129   -3.8727   -5.4087 H         1 <0>         0.0768
     45 H18        -6.4078   -5.0923   -5.5288 H         1 <0>         0.0690
     46 H19        -8.8995   -4.8295   -6.8177 H         1 <0>         0.1298
     47 H20       -10.8624   -5.6122   -8.0794 H         1 <0>         0.1349
     48 H21       -11.7819   -8.3683   -4.9521 H         1 <0>         0.1346
     49 H22        -9.8149   -7.5976   -3.6894 H         1 <0>         0.1288
     50 H23        -0.4685   -2.5263    0.6061 H         1 <0>         0.3785
@<TRIPOS>BOND
     1    1    6 ar
     2    1    2 ar
     3    1   30 1
     4    2    3 ar
     5    2   31 1
     6    3    4 ar
     7    3   29 1
     8    4    5 ar
     9    4   32 1
    10    5    6 ar
    11    5   33 1
    12    6    7 1
    13    7    8 1
    14    7    9 1
    15    7   28 1
    16    9   10 1
    17    9   34 1
    18    9   35 1
    19   10   11 am
    20   10   36 1
    21   11   12 2
    22   11   13 am
    23   13   14 1
    24   13   37 1
    25   14   15 1
    26   14   38 1
    27   14   39 1
    28   15   16 1
    29   15   20 1
    30   15   17 1
    31   17   18 1
    32   17   40 1
    33   17   41 1
    34   18   19 1
    35   18   42 1
    36   18   43 1
    37   19   20 1
    38   19   21 1
    39   20   44 1
    40   20   45 1
    41   21   26 ar
    42   21   22 ar
    43   22   23 ar
    44   22   46 1
    45   23   24 ar
    46   23   47 1
    47   24   25 ar
    48   24   27 1
    49   25   26 ar
    50   25   48 1
    51   26   49 1
    52   28   50 1
@<TRIPOS>MOLECULE
ZINC13059450
   46    48     0     0     0
SMALL
USER_CHARGES
4-[(4,5,6,7,8,9-hexahydrocycloocta[d]thiophene-2-carbonylamino)sulfamoyl]benzoic acid
@<TRIPOS>ATOM
      1 C1         -2.0803    3.0318   -3.7439 C.ar      1 <0>        -0.1078
      2 C2         -2.0371    2.2568   -2.6036 C.ar      1 <0>        -0.0329
      3 C3         -1.5070    2.7710   -1.4335 C.ar      1 <0>        -0.6900
      4 C4         -1.0218    4.0663   -1.3970 C.ar      1 <0>        -0.0437
      5 C5         -1.0540    4.8505   -2.5314 C.ar      1 <0>        -0.0974
      6 C6         -1.5875    4.3379   -3.7155 C.ar      1 <0>        -0.0474
      7 C7         -1.6300    5.1736   -4.9330 C.2       1 <0>         0.4821
      8 O1         -2.0944    4.7248   -5.9618 O.co2     1 <0>        -0.6193
      9 S1         -1.4563    1.7742    0.0186 S.o2      1 <0>         2.6959
     10 O2         -2.4724    0.7917   -0.1276 O.2       1 <0>        -0.9415
     11 O3         -1.4135    2.6674    1.1230 O.2       1 <0>        -0.9435
     12 N1         -0.0111    0.9658    0.0074 N.pl3     1 <0>        -0.9018
     13 N2          1.1926    1.6828   -0.0003 N.am      1 <0>        -0.5031
     14 C8          2.1232    1.4473    0.9457 C.2       1 <0>         0.6136
     15 O4          1.9180    0.6119    1.8066 O.2       1 <0>        -0.5095
     16 C9          3.3825    2.1974    0.9377 C.2       1 <0>        -0.2353
     17 C10         4.4501    2.1166    1.8045 C.2       1 <0>        -0.0558
     18 C11         5.5566    2.9370    1.5716 C.2       1 <0>        -0.1330
     19 C12         5.4702    3.8049    0.5439 C.2       1 <0>        -0.1228
     20 S2          3.9343    3.4606   -0.1910 S.3       1 <0>         0.1159
     21 C13         6.3649    4.9194    0.0679 C.3       1 <0>        -0.0480
     22 C14         7.6017    5.0884    0.9512 C.3       1 <0>        -0.1203
     23 C15         8.6575    4.0512    0.6043 C.3       1 <0>        -0.1210
     24 C16         8.0630    2.6983    0.2679 C.3       1 <0>        -0.1338
     25 C17         7.8374    1.9655    1.5942 C.3       1 <0>        -0.1151
     26 C18         6.8065    2.7377    2.4173 C.3       1 <0>        -0.0686
     27 H1         -2.4939    2.6291   -4.6567 H         1 <0>         0.1396
     28 H2         -2.4175    1.2462   -2.6243 H         1 <0>         0.1370
     29 H3         -0.6131    4.4629   -0.4793 H         1 <0>         0.1362
     30 H4         -0.6708    5.8598   -2.5027 H         1 <0>         0.1438
     31 H5          0.0021   -0.0041    0.0020 H         1 <0>         0.4284
     32 H6          1.3561    2.3486   -0.6864 H         1 <0>         0.4220
     33 H7          4.4333    1.4341    2.6414 H         1 <0>         0.1455
     34 H8          6.6854    4.7043   -0.9515 H         1 <0>         0.0867
     35 H9          5.7996    5.8514    0.0694 H         1 <0>         0.0874
     36 H10         7.3148    4.9726    1.9963 H         1 <0>         0.0773
     37 H11         8.0157    6.0856    0.8019 H         1 <0>         0.0726
     38 H12         9.3313    3.9378    1.4535 H         1 <0>         0.0629
     39 H13         9.2310    4.4061   -0.2520 H         1 <0>         0.0578
     40 H14         8.7550    2.1329   -0.3563 H         1 <0>         0.0628
     41 H15         7.1135    2.8281   -0.2514 H         1 <0>         0.0788
     42 H16         8.7765    1.9098    2.1447 H         1 <0>         0.0674
     43 H17         7.4685    0.9586    1.3988 H         1 <0>         0.0609
     44 H18         7.2159    3.7078    2.6989 H         1 <0>         0.0867
     45 H19         6.5544    2.1727    3.3147 H         1 <0>         0.0715
     46 O5         -1.1538    6.4333   -4.9022 O.co2     1 <0>        -0.7411
@<TRIPOS>BOND
     1    1    6 ar
     2    1    2 ar
     3    1   27 1
     4    2    3 ar
     5    2   28 1
     6    3    4 ar
     7    3    9 1
     8    4    5 ar
     9    4   29 1
    10    5    6 ar
    11    5   30 1
    12    6    7 1
    13    7    8 2
    14    7   46 1
    15    9   10 2
    16    9   11 2
    17    9   12 1
    18   12   13 1
    19   12   31 1
    20   13   14 am
    21   13   32 1
    22   14   15 2
    23   14   16 1
    24   16   20 1
    25   16   17 2
    26   17   18 1
    27   17   33 1
    28   18   26 1
    29   18   19 2
    30   19   20 1
    31   19   21 1
    32   21   22 1
    33   21   34 1
    34   21   35 1
    35   22   23 1
    36   22   36 1
    37   22   37 1
    38   23   24 1
    39   23   38 1
    40   23   39 1
    41   24   25 1
    42   24   40 1
    43   24   41 1
    44   25   26 1
    45   25   42 1
    46   25   43 1
    47   26   44 1
    48   26   45 1
@<TRIPOS>MOLECULE
ZINC17081835
   44    47     0     0     0
SMALL
USER_CHARGES
(1S,4R,5R,6S)-6-[[3-[(2-fluorophenyl)carbamoyl]-2-thienyl]carbamoyl]bicyclo[2.2.1]hept-2-ene-5-carboxylic acid
@<TRIPOS>ATOM
      1 C1          2.1709   -1.9381   -9.2141 C.ar      1 <0>        -0.1094
      2 C2          3.0760   -2.5820  -10.0378 C.ar      1 <0>        -0.1142
      3 C3          3.5173   -3.8543   -9.7245 C.ar      1 <0>        -0.1370
      4 C4          3.0583   -4.4849   -8.5824 C.ar      1 <0>         0.0643
      5 C5          2.1441   -3.8413   -7.7555 C.ar      1 <0>         0.1299
      6 C6          1.7041   -2.5639   -8.0745 C.ar      1 <0>        -0.0952
      7 N1          1.6730   -4.4778   -6.6010 N.am      1 <0>        -0.6726
      8 C7          1.4014   -3.7551   -5.4963 C.2       1 <0>         0.5901
      9 O1          1.4983   -2.5420   -5.5235 O.2       1 <0>        -0.5177
     10 C8          0.9892   -4.4300   -4.2618 C.2       1 <0>        -0.2886
     11 C9          0.8666   -5.8665   -4.1888 C.2       1 <0>        -0.0975
     12 C10         0.4748   -6.3905   -3.0135 C.2       1 <0>        -0.2602
     13 S1          0.2697   -4.9589   -1.9745 S.3       1 <0>         0.2202
     14 C11         0.7009   -3.7184   -3.1031 C.2       1 <0>         0.1689
     15 N2          0.7426   -2.3472   -2.9016 N.am      1 <0>        -0.5882
     16 C12         0.4203   -1.8328   -1.6982 C.2       1 <0>         0.5284
     17 O2          0.0938   -2.5693   -0.7917 O.2       1 <0>        -0.5001
     18 C13         0.4657   -0.3425   -1.4792 C.3       1 <0>        -0.0879
     19 H1         -0.0865    0.1759   -2.2630 H         1 <0>         0.0954
     20 C14        -0.1047    0.0233   -0.0719 C.3       1 <0>        -0.0538
     21 H2         -1.0334   -0.4697    0.2157 H         1 <0>         0.1032
     22 C15         1.1603   -0.2403    0.8244 C.3       1 <0>        -0.1138
     23 C16         2.0581    0.7631    0.0119 C.3       1 <0>        -0.0578
     24 H3          3.0717    0.9208    0.3805 H         1 <0>         0.0985
     25 C17         1.9297    0.1583   -1.4225 C.3       1 <0>        -0.1239
     26 H4          2.1028    0.9227   -2.1800 H         1 <0>         0.0806
     27 C18         2.8896   -0.9896   -1.6013 C.2       1 <0>         0.4560
     28 O3          3.2178   -1.6566   -0.6488 O.co2     1 <0>        -0.6214
     29 C19         1.1291    1.9831   -0.0132 C.2       1 <0>        -0.1551
     30 C20        -0.1171    1.5568   -0.0614 C.2       1 <0>        -0.1800
     31 F1          3.4936   -5.7259   -8.2732 F         1 <0>        -0.1397
     32 H5          1.8288   -0.9442   -9.4619 H         1 <0>         0.1315
     33 H6          3.4392   -2.0897  -10.9278 H         1 <0>         0.1308
     34 H7          4.2245   -4.3543  -10.3698 H         1 <0>         0.1357
     35 H8          0.9970   -2.0599   -7.4323 H         1 <0>         0.1505
     36 H9          1.5422   -5.4389   -6.5961 H         1 <0>         0.4100
     37 H10         1.0762   -6.4935   -5.0429 H         1 <0>         0.1318
     38 H11         0.3221   -7.4293   -2.7607 H         1 <0>         0.1838
     39 H12         1.0038   -1.7581   -3.6266 H         1 <0>         0.4394
     40 H13         1.0128    0.0740    1.8576 H         1 <0>         0.0643
     41 H14         1.5148   -1.2686    0.7543 H         1 <0>         0.1026
     42 H15         1.4429    3.0163    0.0052 H         1 <0>         0.1228
     43 H16        -0.9975    2.1815   -0.0930 H         1 <0>         0.1238
     44 O4          3.3800   -1.2710   -2.8187 O.co2     1 <0>        -0.7487
@<TRIPOS>BOND
     1    1    6 ar
     2    1    2 ar
     3    1   32 1
     4    2    3 ar
     5    2   33 1
     6    3    4 ar
     7    3   34 1
     8    4    5 ar
     9    4   31 1
    10    5    6 ar
    11    5    7 1
    12    6   35 1
    13    7    8 am
    14    7   36 1
    15    8    9 2
    16    8   10 1
    17   10   14 2
    18   10   11 1
    19   11   12 2
    20   11   37 1
    21   12   13 1
    22   12   38 1
    23   13   14 1
    24   14   15 1
    25   15   16 am
    26   15   39 1
    27   16   17 2
    28   16   18 1
    29   18   19 1
    30   18   25 1
    31   18   20 1
    32   20   21 1
    33   20   30 1
    34   20   22 1
    35   22   23 1
    36   22   40 1
    37   22   41 1
    38   23   24 1
    39   23   25 1
    40   23   29 1
    41   25   26 1
    42   25   27 1
    43   27   28 2
    44   27   44 1
    45   29   30 2
    46   29   42 1
    47   30   43 1
@<TRIPOS>MOLECULE
ZINC17098090
   61    63     0     0     0
SMALL
USER_CHARGES
(1S,6R)-6-[[3-(cyclohexylcarbamoyl)-4,5-dimethyl-2-thienyl]carbamoyl]-3,4-dimethyl-cyclohex-3-ene-1-carboxylic acid
@<TRIPOS>ATOM
      1 C1         -1.2221   -0.8006    0.7423 C.3       1 <0>        -0.0943
      2 C2          0.0371   -0.0150    0.4811 C.2       1 <0>        -0.0631
      3 C3         -0.0016    1.3018    0.2090 C.2       1 <0>        -0.2338
      4 S1          1.7139    1.7251   -0.0124 S.3       1 <0>         0.2041
      5 C4          2.4318    0.1725    0.2565 C.2       1 <0>         0.1138
      6 C5          1.3362   -0.6436    0.5119 C.2       1 <0>        -0.2556
      7 C6          1.4922   -2.0732    0.7981 C.2       1 <0>         0.5879
      8 O1          1.4774   -2.8812   -0.1121 O.2       1 <0>        -0.5184
      9 N1          1.6519   -2.4925    2.0689 N.am      1 <0>        -0.7260
     10 C7          1.8078   -3.9209    2.3549 C.3       1 <0>         0.1430
     11 C8          0.4278   -4.5718    2.4685 C.3       1 <0>        -0.1272
     12 C9          0.5906   -6.0635    2.7671 C.3       1 <0>        -0.1176
     13 C10         1.3479   -6.2402    4.0847 C.3       1 <0>        -0.1197
     14 C11         2.7278   -5.5893    3.9711 C.3       1 <0>        -0.1163
     15 C12         2.5651   -4.0976    3.6725 C.3       1 <0>        -0.1253
     16 N2          3.7744   -0.1728    0.2251 N.am      1 <0>        -0.5981
     17 C13         4.7051    0.7644   -0.0430 C.2       1 <0>         0.5323
     18 O2          4.3684    1.9098   -0.2566 O.2       1 <0>        -0.5026
     19 C14         6.1643    0.3891   -0.0771 C.3       1 <0>        -0.0822
     20 H1          6.3197   -0.5293    0.4889 H         1 <0>         0.0931
     21 C15         7.0003    1.5190    0.5278 C.3       1 <0>        -0.0571
     22 C16         7.0011    2.7084   -0.3873 C.2       1 <0>        -0.1371
     23 C17         6.6623    2.6631   -1.6358 C.2       1 <0>        -0.0999
     24 C18         6.2117    1.4169   -2.3401 C.3       1 <0>        -0.0601
     25 C19         6.6092    0.1808   -1.5302 C.3       1 <0>        -0.1175
     26 H2          7.6908    0.0509   -1.5672 H         1 <0>         0.0864
     27 C20         5.9326   -1.0406   -2.0971 C.2       1 <0>         0.4654
     28 O3          5.1714   -1.6821   -1.4123 O.co2     1 <0>        -0.6360
     29 C21         6.7247    3.9412   -2.4318 C.3       1 <0>        -0.1182
     30 C22         7.4231    4.0382    0.1825 C.3       1 <0>        -0.1073
     31 C23        -1.2070    2.2008    0.1089 C.3       1 <0>        -0.0561
     32 H3         -1.6032   -1.1992   -0.1978 H         1 <0>         0.0689
     33 H4         -1.0027   -1.6229    1.4233 H         1 <0>         0.0598
     34 H5         -1.9712   -0.1478    1.1905 H         1 <0>         0.0669
     35 H6          1.6637   -1.8486    2.7943 H         1 <0>         0.3971
     36 H7          2.3673   -4.3940    1.5479 H         1 <0>         0.0898
     37 H8         -0.1318   -4.0987    3.2754 H         1 <0>         0.0609
     38 H9         -0.1117   -4.4459    1.5298 H         1 <0>         0.0671
     39 H10         1.1501   -6.5366    1.9602 H         1 <0>         0.0653
     40 H11        -0.3925   -6.5272    2.8481 H         1 <0>         0.0622
     41 H12         1.4638   -7.3029    4.2975 H         1 <0>         0.0613
     42 H13         0.7883   -5.7671    4.8917 H         1 <0>         0.0604
     43 H14         3.2874   -6.0624    3.1642 H         1 <0>         0.0667
     44 H15         3.2674   -5.7152    4.9098 H         1 <0>         0.0649
     45 H16         3.5482   -3.6338    3.5915 H         1 <0>         0.0694
     46 H17         2.0055   -3.6244    4.4794 H         1 <0>         0.0654
     47 H18         4.0437   -1.0889    0.3960 H         1 <0>         0.4304
     48 H19         6.5782    1.8048    1.4913 H         1 <0>         0.0669
     49 H20         8.0240    1.1736    0.6722 H         1 <0>         0.0778
     50 H21         6.6779    1.3694   -3.3242 H         1 <0>         0.0749
     51 H22         5.1280    1.4407   -2.4544 H         1 <0>         0.0677
     52 H23         5.8003    4.5017   -2.2921 H         1 <0>         0.0630
     53 H24         7.5684    4.5410   -2.0904 H         1 <0>         0.0608
     54 H25         6.8505    3.7054   -3.4885 H         1 <0>         0.0557
     55 H26         6.5814    4.7301    0.1520 H         1 <0>         0.0596
     56 H27         7.7466    3.9049    1.2148 H         1 <0>         0.0503
     57 H28         8.2464    4.4413   -0.4071 H         1 <0>         0.0590
     58 H29        -1.4245    2.6271    1.0882 H         1 <0>         0.0689
     59 H30        -1.0036    3.0037   -0.5998 H         1 <0>         0.0677
     60 H31        -2.0645    1.6220   -0.2340 H         1 <0>         0.0722
     61 O4          6.1756   -1.4159   -3.3627 O.co2     1 <0>        -0.7576
@<TRIPOS>BOND
     1    1    2 1
     2    1   32 1
     3    1   33 1
     4    1   34 1
     5    2    6 1
     6    2    3 2
     7    3    4 1
     8    3   31 1
     9    4    5 1
    10    5    6 2
    11    5   16 1
    12    6    7 1
    13    7    8 2
    14    7    9 am
    15    9   10 1
    16    9   35 1
    17   10   15 1
    18   10   11 1
    19   10   36 1
    20   11   12 1
    21   11   37 1
    22   11   38 1
    23   12   13 1
    24   12   39 1
    25   12   40 1
    26   13   14 1
    27   13   41 1
    28   13   42 1
    29   14   15 1
    30   14   43 1
    31   14   44 1
    32   15   45 1
    33   15   46 1
    34   16   17 am
    35   16   47 1
    36   17   18 2
    37   17   19 1
    38   19   20 1
    39   19   25 1
    40   19   21 1
    41   21   22 1
    42   21   48 1
    43   21   49 1
    44   22   23 2
    45   22   30 1
    46   23   24 1
    47   23   29 1
    48   24   25 1
    49   24   50 1
    50   24   51 1
    51   25   26 1
    52   25   27 1
    53   27   28 2
    54   27   61 1
    55   29   52 1
    56   29   53 1
    57   29   54 1
    58   30   55 1
    59   30   56 1
    60   30   57 1
    61   31   58 1
    62   31   59 1
    63   31   60 1
@<TRIPOS>MOLECULE
ZINC19641783
   62    65     0     0     0
SMALL
USER_CHARGES
(1S,6R)-6-[[(6R)-3-(cyclohexylcarbamoyl)-6-methyl-4,5,6,7-tetrahydrobenzothiophen-2-yl]carbamoyl]cyclohex-3-ene-1-carboxylic acid
@<TRIPOS>ATOM
      1 C1          6.0175   -6.5296   -4.9678 C.3       1 <0>        -0.1469
      2 C2          5.7889   -5.1063   -4.4550 C.3       1 <0>        -0.0886
      3 H1          6.4196   -4.9396   -3.5693 H         1 <0>         0.0749
      4 C3          4.3141   -4.9249   -4.0843 C.3       1 <0>        -0.1095
      5 C4          4.1228   -3.5995   -3.3450 C.3       1 <0>        -0.0590
      6 C5          4.7401   -2.4812   -4.1758 C.2       1 <0>        -0.0535
      7 C6          5.6372   -2.7515   -5.1488 C.2       1 <0>        -0.2361
      8 S1          6.0623   -1.1711   -5.8239 S.3       1 <0>         0.2018
      9 C7          5.0595   -0.1644   -4.8324 C.2       1 <0>         0.1204
     10 C8          4.4253   -1.0740   -3.9980 C.2       1 <0>        -0.2559
     11 C9          3.4686   -0.6318   -2.9787 C.2       1 <0>         0.5878
     12 O1          3.8560   -0.3610   -1.8571 O.2       1 <0>        -0.5251
     13 N1          2.1601   -0.5252   -3.2838 N.am      1 <0>        -0.7379
     14 C10         1.2042   -0.0833   -2.2654 C.3       1 <0>         0.1490
     15 C11        -0.1884   -0.6168   -2.6075 C.3       1 <0>        -0.1223
     16 C12        -1.1868   -0.1554   -1.5439 C.3       1 <0>        -0.1155
     17 C13        -1.2215    1.3738   -1.5062 C.3       1 <0>        -0.1207
     18 C14         0.1711    1.9072   -1.1641 C.3       1 <0>        -0.1172
     19 C15         1.1695    1.4458   -2.2277 C.3       1 <0>        -0.1331
     20 N2          4.9247    1.2153   -4.8638 N.am      1 <0>        -0.6113
     21 C16         5.6299    1.9412   -5.7539 C.2       1 <0>         0.5324
     22 O2          6.3824    1.3876   -6.5273 O.2       1 <0>        -0.5101
     23 C17         5.4834    3.4406   -5.7880 C.3       1 <0>        -0.0798
     24 H2          4.5281    3.7001   -5.3084 H         1 <0>         0.0916
     25 C18         5.5026    3.9265   -7.2389 C.3       1 <0>        -0.0700
     26 C19         6.8785    3.7716   -7.8177 C.2       1 <0>        -0.1608
     27 C20         7.9485    3.6024   -7.1092 C.2       1 <0>        -0.1239
     28 C21         7.9615    3.5277   -5.6105 C.3       1 <0>        -0.0735
     29 C22         6.6565    4.0904   -5.0433 C.3       1 <0>        -0.1198
     30 H3          6.6289    5.1843   -5.1559 H         1 <0>         0.0870
     31 C23         6.5632    3.7703   -3.5736 C.2       1 <0>         0.4648
     32 O3          5.6530    3.0921   -3.1596 O.co2     1 <0>        -0.6360
     33 O4          7.4913    4.2387   -2.7245 O.co2     1 <0>        -0.7589
     34 C24         6.1499   -4.0984   -5.5559 C.3       1 <0>        -0.0222
     35 H4          5.7584   -7.2500   -4.1779 H         1 <0>         0.0552
     36 H5          7.0747   -6.6540   -5.2451 H         1 <0>         0.0558
     37 H6          5.3838   -6.7080   -5.8490 H         1 <0>         0.0549
     38 H7          3.7038   -4.9214   -4.9994 H         1 <0>         0.0647
     39 H8          3.9950   -5.7526   -3.4339 H         1 <0>         0.0646
     40 H9          3.0484   -3.4100   -3.2041 H         1 <0>         0.0696
     41 H10         4.6176   -3.6521   -2.3640 H         1 <0>         0.0745
     42 H11         1.8099   -0.7700   -4.2974 H         1 <0>         0.4140
     43 H12         1.5477   -0.4868   -1.3015 H         1 <0>         0.0841
     44 H13        -0.4968   -0.2327   -3.5911 H         1 <0>         0.0668
     45 H14        -0.1634   -1.7162   -2.6346 H         1 <0>         0.0658
     46 H15        -2.1880   -0.5389   -1.7899 H         1 <0>         0.0632
     47 H16        -0.8785   -0.5395   -0.5603 H         1 <0>         0.0638
     48 H17        -1.5299    1.7579   -2.4897 H         1 <0>         0.0612
     49 H18        -1.9393    1.7056   -0.7415 H         1 <0>         0.0605
     50 H19         0.1462    3.0066   -1.1370 H         1 <0>         0.0646
     51 H20         0.4795    1.5231   -0.1806 H         1 <0>         0.0634
     52 H21         2.1707    1.8293   -1.9817 H         1 <0>         0.0751
     53 H22         0.8612    1.8299   -3.2112 H         1 <0>         0.0622
     54 H23         4.2422    1.7173   -4.1623 H         1 <0>         0.4561
     55 H24         4.7924    3.3333   -7.8336 H         1 <0>         0.0671
     56 H25         5.2139    4.9874   -7.2742 H         1 <0>         0.0789
     57 H26         6.9456    3.8090   -8.9150 H         1 <0>         0.0977
     58 H27         8.9259    3.5035   -7.6041 H         1 <0>         0.0974
     59 H28         8.0684    2.4789   -5.2966 H         1 <0>         0.0701
     60 H29         8.8064    4.1148   -5.2214 H         1 <0>         0.0761
     61 H30         7.2426   -4.0644   -5.6779 H         1 <0>         0.0747
     62 H31         5.6846   -4.4080   -6.5034 H         1 <0>         0.0758
@<TRIPOS>BOND
     1    1    2 1
     2    1   35 1
     3    1   36 1
     4    1   37 1
     5    2    3 1
     6    2   34 1
     7    2    4 1
     8    4    5 1
     9    4   38 1
    10    4   39 1
    11    5    6 1
    12    5   40 1
    13    5   41 1
    14    6   10 1
    15    6    7 2
    16    7    8 1
    17    7   34 1
    18    8    9 1
    19    9   10 2
    20    9   20 1
    21   10   11 1
    22   11   12 2
    23   11   13 am
    24   13   14 1
    25   13   42 1
    26   14   19 1
    27   14   15 1
    28   14   43 1
    29   15   16 1
    30   15   44 1
    31   15   45 1
    32   16   17 1
    33   16   46 1
    34   16   47 1
    35   17   18 1
    36   17   48 1
    37   17   49 1
    38   18   19 1
    39   18   50 1
    40   18   51 1
    41   19   52 1
    42   19   53 1
    43   20   21 am
    44   20   54 1
    45   21   22 2
    46   21   23 1
    47   23   24 1
    48   23   29 1
    49   23   25 1
    50   25   26 1
    51   25   55 1
    52   25   56 1
    53   26   27 2
    54   26   57 1
    55   27   28 1
    56   27   58 1
    57   28   29 1
    58   28   59 1
    59   28   60 1
    60   29   30 1
    61   29   31 1
    62   31   32 2
    63   31   33 1
    64   34   61 1
    65   34   62 1
@<TRIPOS>MOLECULE
ZINC59025646
   40    42     0     0     0
SMALL
USER_CHARGES

@<TRIPOS>ATOM
      1 C1         -0.0184    1.5028    0.0103 C.3       1 <0>        -0.0720
      2 C2          0.0021   -0.0041    0.0020 C.2       1 <0>         0.0873
      3 C3          0.0079   -0.8147   -1.1361 C.2       1 <0>        -0.2805
      4 C4          0.0274   -2.1123   -0.7243 C.2       1 <0>         0.3191
      5 N1          0.0335   -2.1091    0.6337 N.pl3     1 <0>        -0.4976
      6 H1          0.0467   -2.8915    1.2070 H         1 <0>         0.4342
      7 N2          0.0230   -0.7746    1.0592 N.2       1 <0>        -0.2968
      8 N3          0.0390   -3.2380   -1.5462 N.am      1 <0>        -0.6518
      9 C5          0.0309   -3.0940   -2.8862 C.2       1 <0>         0.5750
     10 O1          0.0136   -1.9825   -3.3781 O.2       1 <0>        -0.5035
     11 C6          0.0432   -4.2879   -3.7579 C.ar      1 <0>        -0.1031
     12 C7          0.0573   -5.5658   -3.1954 C.ar      1 <0>        -0.1943
     13 C8          0.0688   -6.6786   -4.0110 C.ar      1 <0>        -0.0687
     14 C9          0.0663   -6.5338   -5.3859 C.ar      1 <0>        -0.2379
     15 C10         0.0523   -5.2663   -5.9559 C.ar      1 <0>         0.2725
     16 C11         0.0349   -4.1416   -5.1449 C.ar      1 <0>        -0.1055
     17 N4          0.0499   -5.1254   -7.3459 N.2       1 <0>        -1.0839
     18 S1          0.0638   -6.4686   -8.3144 S.o2      1 <0>         2.6024
     19 O2          1.3162   -7.1067   -8.1059 O.2       1 <0>        -1.0246
     20 O3         -1.1743   -7.1336   -8.1043 O.2       1 <0>        -1.0246
     21 C12         0.0567   -5.9068   -9.9844 C.ar      1 <0>        -0.6014
     22 C13        -1.1434   -5.6940  -10.6367 C.ar      1 <0>        -0.0175
     23 C14        -1.1495   -5.2529  -11.9466 C.ar      1 <0>        -0.1169
     24 C15         0.0455   -5.0244  -12.6048 C.ar      1 <0>        -0.0532
     25 C16         1.2461   -5.2375  -11.9517 C.ar      1 <0>        -0.1169
     26 C17         1.2511   -5.6736  -10.6401 C.ar      1 <0>        -0.0175
     27 Br1         0.0378   -4.4215  -14.3971 Br        1 <0>        -0.0543
     28 H2          1.0042    1.8801    0.0026 H         1 <0>         0.0765
     29 H3         -0.5455    1.8639   -0.8728 H         1 <0>         0.0793
     30 H4         -0.5286    1.8543    0.9071 H         1 <0>         0.0704
     31 H5         -0.0014   -0.4727   -2.1604 H         1 <0>         0.1747
     32 H6          0.0528   -4.1249   -1.1537 H         1 <0>         0.4122
     33 H7          0.0596   -5.6832   -2.1218 H         1 <0>         0.1045
     34 H8          0.0801   -7.6661   -3.5739 H         1 <0>         0.1118
     35 H9          0.0757   -7.4086   -6.0192 H         1 <0>         0.1032
     36 H10         0.0191   -3.1558   -5.5857 H         1 <0>         0.1310
     37 H11        -2.0764   -5.8727  -10.1229 H         1 <0>         0.1468
     38 H12        -2.0871   -5.0869  -12.4563 H         1 <0>         0.1375
     39 H13         2.1793   -5.0593  -12.4652 H         1 <0>         0.1375
     40 H14         2.1884   -5.8361  -10.1288 H         1 <0>         0.1468
@<TRIPOS>BOND
     1    1    2 1
     2    1   28 1
     3    1   29 1
     4    1   30 1
     5    2    7 2
     6    2    3 1
     7    3    4 2
     8    3   31 1
     9    4    5 1
    10    4    8 1
    11    5    6 1
    12    5    7 1
    13    8    9 am
    14    8   32 1
    15    9   10 2
    16    9   11 1
    17   11   16 ar
    18   11   12 ar
    19   12   13 ar
    20   12   33 1
    21   13   14 ar
    22   13   34 1
    23   14   15 ar
    24   14   35 1
    25   15   16 ar
    26   15   17 1
    27   16   36 1
    28   17   18 1
    29   18   19 2
    30   18   20 2
    31   18   21 1
    32   21   26 ar
    33   21   22 ar
    34   22   23 ar
    35   22   37 1
    36   23   24 ar
    37   23   38 1
    38   24   25 ar
    39   24   27 1
    40   25   26 ar
    41   25   39 1
    42   26   40 1
@<TRIPOS>MOLECULE
ZINC00705515
   52    56     0     0     0
SMALL
USER_CHARGES
2-amino-4-benzo[1,3]dioxol-5-yl-1-(4-methoxyphenyl)-5-oxo-4,6,7,8-tetrahydroquinoline-3-carbonitrile
@<TRIPOS>ATOM
      1 C1          4.0901   -1.1255    1.1204 C.3       1 <0>         0.0232
      2 O1          3.5865   -0.6399   -0.1257 O.3       1 <0>        -0.3108
      3 C2          2.4004    0.0238   -0.0955 C.ar      1 <0>         0.1503
      4 C3          1.8543    0.5217   -1.2697 C.ar      1 <0>        -0.1396
      5 C4          0.6498    1.1957   -1.2398 C.ar      1 <0>        -0.0562
      6 C5         -0.0153    1.3753   -0.0340 C.ar      1 <0>         0.0560
      7 C6          0.5318    0.8767    1.1410 C.ar      1 <0>        -0.0693
      8 C7          1.7367    0.2032    1.1096 C.ar      1 <0>        -0.1992
      9 N1         -1.2350    2.0643   -0.0021 N.pl3     1 <0>        -0.4865
     10 C8         -1.2410    3.4296    0.1097 C.2       1 <0>         0.2304
     11 C9         -2.3333    4.1437   -0.2367 C.2       1 <0>        -0.2600
     12 C10        -3.5655    3.4620   -0.7759 C.3       1 <0>         0.1072
     13 H1         -4.4501    3.9231   -0.3367 H         1 <0>         0.0933
     14 C11        -3.5613    1.9978   -0.4485 C.2       1 <0>        -0.2452
     15 C12        -2.4167    1.3642   -0.0890 C.2       1 <0>         0.4832
     16 N2         -2.4395    0.0193    0.1934 N.pl3     1 <0>        -0.8509
     17 C13        -4.7844    1.2566   -0.5214 C.1       1 <0>         0.2731
     18 N3         -5.7546    0.6685   -0.5792 N.1       1 <0>        -0.4493
     19 C14        -3.6103    3.6336   -2.2724 C.ar      1 <0>        -0.0558
     20 C15        -2.5782    3.1479   -3.0536 C.ar      1 <0>        -0.0972
     21 C16        -2.6170    3.2989   -4.4272 C.ar      1 <0>        -0.1016
     22 C17        -3.6866    3.9468   -5.0236 C.ar      1 <0>         0.0259
     23 C18        -4.7237    4.4407   -4.2362 C.ar      1 <0>         0.0337
     24 C19        -4.6805    4.2814   -2.8606 C.ar      1 <0>        -0.0818
     25 O2         -5.6470    5.0303   -5.0505 O.3       1 <0>        -0.3085
     26 C20        -5.3663    4.5339   -6.3726 C.3       1 <0>         0.2131
     27 O3         -3.9601    4.2269   -6.3312 O.3       1 <0>        -0.3106
     28 C21        -2.3542    5.5433   -0.1089 C.2       1 <0>         0.4017
     29 O4         -3.3503    6.1569   -0.4375 O.2       1 <0>        -0.4598
     30 C22        -1.1674    6.2962    0.4267 C.3       1 <0>        -0.1599
     31 C23        -0.3868    5.3852    1.3798 C.3       1 <0>        -0.1112
     32 C24         0.0022    4.1124    0.6246 C.3       1 <0>        -0.0960
     33 H2          3.3746   -1.8241    1.5540 H         1 <0>         0.0595
     34 H3          5.0399   -1.6340    0.9550 H         1 <0>         0.1056
     35 H4          4.2400   -0.2887    1.8026 H         1 <0>         0.0601
     36 H5          2.3719    0.3822   -2.2073 H         1 <0>         0.1431
     37 H6          0.2247    1.5829   -2.1540 H         1 <0>         0.1391
     38 H7          0.0153    1.0163    2.0791 H         1 <0>         0.1353
     39 H8          2.1623   -0.1846    2.0233 H         1 <0>         0.1394
     40 H9         -1.6449   -0.4175    0.5380 H         1 <0>         0.4043
     41 H10        -3.2502   -0.4931    0.0481 H         1 <0>         0.4194
     42 H11        -1.7416    2.6463   -2.5901 H         1 <0>         0.1255
     43 H12        -1.8113    2.9148   -5.0354 H         1 <0>         0.1324
     44 H13        -5.4832    4.6637   -2.2475 H         1 <0>         0.1348
     45 H14        -5.9486    3.6352   -6.5759 H         1 <0>         0.0830
     46 H15        -5.5692    5.3003   -7.1206 H         1 <0>         0.1312
     47 H16        -1.4820    7.1085    0.9178 H         1 <0>         0.0880
     48 H17        -0.5227    6.5983   -0.3987 H         1 <0>         0.1013
     49 H18        -1.0123    5.1273    2.2344 H         1 <0>         0.0763
     50 H19         0.5125    5.8975    1.7218 H         1 <0>         0.0878
     51 H20         0.5339    3.4393    1.2973 H         1 <0>         0.0913
     52 H21         0.6479    4.3716   -0.2144 H         1 <0>         0.1010
@<TRIPOS>BOND
     1    1    2 1
     2    1   33 1
     3    1   34 1
     4    1   35 1
     5    2    3 1
     6    3    8 ar
     7    3    4 ar
     8    4    5 ar
     9    4   36 1
    10    5    6 ar
    11    5   37 1
    12    6    7 ar
    13    6    9 1
    14    7    8 ar
    15    7   38 1
    16    8   39 1
    17    9   15 1
    18    9   10 1
    19   10   32 1
    20   10   11 2
    21   11   12 1
    22   11   28 1
    23   12   13 1
    24   12   14 1
    25   12   19 1
    26   14   15 2
    27   14   17 1
    28   15   16 1
    29   16   40 1
    30   16   41 1
    31   17   18 3
    32   19   24 ar
    33   19   20 ar
    34   20   21 ar
    35   20   42 1
    36   21   22 ar
    37   21   43 1
    38   22   27 1
    39   22   23 ar
    40   23   24 ar
    41   23   25 1
    42   24   44 1
    43   25   26 1
    44   26   27 1
    45   26   45 1
    46   26   46 1
    47   28   29 2
    48   28   30 1
    49   30   31 1
    50   30   47 1
    51   30   48 1
    52   31   32 1
    53   31   49 1
    54   31   50 1
    55   32   51 1
    56   32   52 1
@<TRIPOS>MOLECULE
ZINC08242675
   40    42     0     0     0
SMALL
USER_CHARGES
N'-[2-(3-bromophenoxy)propanoyl]benzo[1,3]dioxole-5-carbohydrazide
@<TRIPOS>ATOM
      1 C1          3.0506   -3.0111    1.2431 C.3       1 <0>        -0.1827
      2 C2          2.5108   -2.6684   -0.1469 C.3       1 <0>         0.0804
      3 H1          3.2017   -1.9904   -0.6480 H         1 <0>         0.1098
      4 C3          2.3705   -3.9316   -0.9567 C.2       1 <0>         0.5203
      5 O1          1.2841   -4.2608   -1.3835 O.2       1 <0>        -0.5084
      6 N1          3.4524   -4.6954   -1.2068 N.am      1 <0>        -0.5160
      7 N2          3.3220   -5.8697   -1.9597 N.am      1 <0>        -0.5156
      8 C4          4.4039   -6.6335   -2.2098 C.2       1 <0>         0.5713
      9 O2          5.4931   -6.3034   -1.7820 O.2       1 <0>        -0.5285
     10 C5          4.2665   -7.8707   -3.0030 C.ar      1 <0>        -0.1250
     11 C6          3.0148   -8.2546   -3.4904 C.ar      1 <0>        -0.0691
     12 C7          2.8893   -9.4070   -4.2348 C.ar      1 <0>        -0.1060
     13 C8          4.0020  -10.1961   -4.4942 C.ar      1 <0>         0.0692
     14 C9          5.2541   -9.8211   -4.0055 C.ar      1 <0>         0.0258
     15 C10         5.3869   -8.6638   -3.2633 C.ar      1 <0>        -0.0348
     16 O3          6.1708  -10.7554   -4.3942 O.3       1 <0>        -0.3024
     17 C11         5.4022  -11.9121   -4.7739 C.3       1 <0>         0.2117
     18 O4          4.1374  -11.3626   -5.1874 O.3       1 <0>        -0.3023
     19 O5          1.2339   -2.0395   -0.0203 O.3       1 <0>        -0.2796
     20 C12         1.2258   -0.6985    0.2003 C.ar      1 <0>         0.1354
     21 C13         2.4193   -0.0206    0.4040 C.ar      1 <0>        -0.1977
     22 C14         2.4090    1.3424    0.6275 C.ar      1 <0>        -0.0708
     23 C15         1.2107    2.0319    0.6484 C.ar      1 <0>        -0.1259
     24 C16         0.0193    1.3588    0.4457 C.ar      1 <0>        -0.0515
     25 C17         0.0247   -0.0054    0.2216 C.ar      1 <0>        -0.1193
     26 Br1        -1.6177    2.3051    0.4750 Br        1 <0>        -0.0360
     27 H2          2.3598   -3.6891    1.7442 H         1 <0>         0.0811
     28 H3          4.0246   -3.4908    1.1465 H         1 <0>         0.0835
     29 H4          3.1521   -2.0975    1.8288 H         1 <0>         0.0841
     30 H5          4.3214   -4.4321   -0.8655 H         1 <0>         0.4349
     31 H6          2.4531   -6.1330   -2.3010 H         1 <0>         0.4339
     32 H7          2.1462   -7.6459   -3.2870 H         1 <0>         0.1439
     33 H8          1.9215   -9.6999   -4.6142 H         1 <0>         0.1482
     34 H9          6.3556   -8.3723   -2.8849 H         1 <0>         0.1531
     35 H10         5.2696  -12.5800   -3.9228 H         1 <0>         0.0910
     36 H11         5.8813  -12.4353   -5.6015 H         1 <0>         0.1381
     37 H12         3.3557   -0.5584    0.3874 H         1 <0>         0.1373
     38 H13         3.3375    1.8694    0.7906 H         1 <0>         0.1380
     39 H14         1.2048    3.0976    0.8237 H         1 <0>         0.1369
     40 H15        -0.9055   -0.5310    0.0636 H         1 <0>         0.1439
@<TRIPOS>BOND
     1    1    2 1
     2    1   27 1
     3    1   28 1
     4    1   29 1
     5    2    3 1
     6    2    4 1
     7    2   19 1
     8    4    5 2
     9    4    6 am
    10    6    7 1
    11    6   30 1
    12    7    8 am
    13    7   31 1
    14    8    9 2
    15    8   10 1
    16   10   15 ar
    17   10   11 ar
    18   11   12 ar
    19   11   32 1
    20   12   13 ar
    21   12   33 1
    22   13   18 1
    23   13   14 ar
    24   14   15 ar
    25   14   16 1
    26   15   34 1
    27   16   17 1
    28   17   18 1
    29   17   35 1
    30   17   36 1
    31   19   20 1
    32   20   25 ar
    33   20   21 ar
    34   21   22 ar
    35   21   37 1
    36   22   23 ar
    37   22   38 1
    38   23   24 ar
    39   23   39 1
    40   24   25 ar
    41   24   26 1
    42   25   40 1
@<TRIPOS>MOLECULE
ZINC05736328
   46    48     0     0     0
SMALL
USER_CHARGES
2-[[5-(4-chlorophenyl)-4-(p-tolyl)-1,2,4-triazol-3-yl]sulfanyl]-N-(methylcarbamoyl)acetamide
@<TRIPOS>ATOM
      1 C1         -5.1262    6.9699   -1.0405 C.3       1 <0>        -0.1223
      2 C2         -4.7648    5.5258   -0.8063 C.ar      1 <0>        -0.0594
      3 C3         -5.0947    4.5701   -1.7497 C.ar      1 <0>        -0.1056
      4 C4         -4.7643    3.2458   -1.5380 C.ar      1 <0>        -0.0928
      5 C5         -4.1008    2.8745   -0.3764 C.ar      1 <0>         0.0855
      6 C6         -3.7764    3.8353    0.5717 C.ar      1 <0>        -0.0888
      7 C7         -4.1043    5.1589    0.3518 C.ar      1 <0>        -0.1069
      8 N1         -3.7641    1.5312   -0.1588 N.pl3     1 <0>        -0.4095
      9 C8         -2.5004    0.9829   -0.1318 C.2       1 <0>         0.2352
     10 N2         -2.6428   -0.3001    0.1079 N.2       1 <0>        -0.2593
     11 N3         -3.8890   -0.5901    0.2256 N.2       1 <0>        -0.2862
     12 C9         -4.6218    0.4897    0.0684 C.2       1 <0>         0.1519
     13 S1         -6.3799    0.5802    0.1435 S.3       1 <0>         0.1039
     14 C10        -6.7700   -1.1553    0.4782 C.3       1 <0>        -0.1551
     15 C11        -8.2637   -1.3226    0.5862 C.2       1 <0>         0.5401
     16 O1         -8.9926   -0.3633    0.4503 O.2       1 <0>        -0.4491
     17 N4         -8.7895   -2.5386    0.8339 N.am      1 <0>        -0.6852
     18 C12       -10.1254   -2.6882    0.9305 C.2       1 <0>         0.6928
     19 O2        -10.8561   -1.7266    0.7942 O.2       1 <0>        -0.5248
     20 N5        -10.6512   -3.9043    1.1782 N.am      1 <0>        -0.7396
     21 C13       -12.1033   -4.0669    1.2832 C.3       1 <0>         0.1018
     22 C14        -1.2253    1.7038   -0.3289 C.ar      1 <0>        -0.0179
     23 C15        -1.2181    2.9631   -0.9313 C.ar      1 <0>        -0.0888
     24 C16        -0.0256    3.6334   -1.1074 C.ar      1 <0>        -0.1064
     25 C17         1.1635    3.0574   -0.6928 C.ar      1 <0>        -0.0192
     26 C18         1.1634    1.8062   -0.0995 C.ar      1 <0>        -0.1083
     27 C19        -0.0227    1.1258    0.0816 C.ar      1 <0>        -0.0598
     28 Cl1         2.6603    3.9075   -0.9173 Cl        1 <0>        -0.0596
     29 H1         -6.1161    7.1680   -0.6293 H         1 <0>         0.0794
     30 H2         -4.3941    7.6118   -0.5505 H         1 <0>         0.0727
     31 H3         -5.1300    7.1745   -2.1112 H         1 <0>         0.0729
     32 H4         -5.6109    4.8596   -2.6531 H         1 <0>         0.1389
     33 H5         -5.0223    2.4999   -2.2752 H         1 <0>         0.1344
     34 H6         -3.2645    3.5487    1.4785 H         1 <0>         0.1317
     35 H7         -3.8482    5.9074    1.0870 H         1 <0>         0.1380
     36 H8         -6.3927   -1.7758   -0.3346 H         1 <0>         0.1360
     37 H9         -6.3017   -1.4588    1.4146 H         1 <0>         0.1359
     38 H10        -8.2064   -3.3061    0.9427 H         1 <0>         0.4143
     39 H11       -10.0680   -4.6718    1.2870 H         1 <0>         0.4018
     40 H12       -12.5715   -3.7634    0.3469 H         1 <0>         0.0634
     41 H13       -12.3382   -5.1120    1.4848 H         1 <0>         0.0822
     42 H14       -12.4806   -3.4464    2.0960 H         1 <0>         0.0634
     43 H15        -2.1449    3.4135   -1.2547 H         1 <0>         0.1362
     44 H16        -0.0193    4.6097   -1.5692 H         1 <0>         0.1407
     45 H17         2.0938    1.3623    0.2224 H         1 <0>         0.1441
     46 H18        -0.0217    0.1502    0.5448 H         1 <0>         0.1473
@<TRIPOS>BOND
     1    1    2 1
     2    1   29 1
     3    1   30 1
     4    1   31 1
     5    2    7 ar
     6    2    3 ar
     7    3    4 ar
     8    3   32 1
     9    4    5 ar
    10    4   33 1
    11    5    6 ar
    12    5    8 1
    13    6    7 ar
    14    6   34 1
    15    7   35 1
    16    8   12 1
    17    8    9 1
    18    9   10 2
    19    9   22 1
    20   10   11 1
    21   11   12 2
    22   12   13 1
    23   13   14 1
    24   14   15 1
    25   14   36 1
    26   14   37 1
    27   15   16 2
    28   15   17 am
    29   17   18 am
    30   17   38 1
    31   18   19 2
    32   18   20 am
    33   20   21 1
    34   20   39 1
    35   21   40 1
    36   21   41 1
    37   21   42 1
    38   22   27 ar
    39   22   23 ar
    40   23   24 ar
    41   23   43 1
    42   24   25 ar
    43   24   44 1
    44   25   26 ar
    45   25   28 1
    46   26   27 ar
    47   26   45 1
    48   27   46 1
@<TRIPOS>MOLECULE
ZINC04452908
   55    57     0     0     0
SMALL
USER_CHARGES

@<TRIPOS>ATOM
      1 C1          0.5470    1.4258    1.0003 C.3       1 <0>        -0.1530
      2 C2          0.4582   -0.0879    0.7964 C.3       1 <0>        -0.1211
      3 C3          1.0427   -0.4537   -0.5695 C.3       1 <0>         0.0543
      4 N1          0.9574   -1.9071   -0.7653 N.3       1 <0>        -0.5277
      5 C4         -0.4458   -2.3432   -0.8803 C.3       1 <0>         0.0760
      6 C5         -0.4537   -3.8520   -0.9015 C.2       1 <0>        -0.1263
      7 C6          0.5467   -4.5086   -1.4584 C.2       1 <0>        -0.0480
      8 C7          1.6979   -3.8223   -2.1367 C.3       1 <0>        -0.0322
      9 H1          1.6110   -4.0093   -3.2070 H         1 <0>         0.0885
     10 C8          1.7150   -2.3229   -1.9488 C.3       1 <0>         0.0612
     11 C9          2.9928   -4.4786   -1.6551 C.3       1 <0>        -0.0189
     12 H2          3.0483   -4.4220   -0.5680 H         1 <0>         0.1344
     13 C10         2.9975   -5.9438   -2.0926 C.3       1 <0>         0.2124
     14 C11         1.7263   -6.6424   -1.7152 C.2       1 <0>         0.2429
     15 C12         0.5695   -5.9924   -1.4278 C.2       1 <0>        -0.1241
     16 C13        -0.6136   -6.7290   -1.0986 C.1       1 <0>         0.2633
     17 N2         -1.5521   -7.3134   -0.8376 N.1       1 <0>        -0.4234
     18 N3          1.7318   -8.0078   -1.6579 N.pl3     1 <0>        -0.8398
     19 C14         3.1639   -6.0073   -3.5537 C.1       1 <0>         0.1965
     20 N4          3.2924   -6.0563   -4.6814 N.1       1 <0>        -0.3482
     21 C15         4.1307   -6.6315   -1.4526 C.1       1 <0>         0.1935
     22 N5          5.0052   -7.1623   -0.9587 N.1       1 <0>        -0.3486
     23 C16         4.1751   -3.7653   -2.2587 C.ar      1 <0>        -0.0241
     24 C17         5.2681   -3.4546   -1.4726 C.ar      1 <0>        -0.1683
     25 C18         6.3581   -2.7977   -2.0261 C.ar      1 <0>         0.1729
     26 C19         6.3496   -2.4532   -3.3689 C.ar      1 <0>        -0.2914
     27 C20         5.2518   -2.7660   -4.1555 C.ar      1 <0>         0.1751
     28 C21         4.1666   -3.4280   -3.5986 C.ar      1 <0>        -0.1828
     29 O1          5.2404   -2.4292   -5.4720 O.3       1 <0>        -0.3088
     30 C22         6.3934   -1.7543   -5.9790 C.3       1 <0>         0.0253
     31 O2          7.4326   -2.4921   -1.2523 O.3       1 <0>        -0.3093
     32 C23         8.5187   -1.8156   -1.8885 C.3       1 <0>         0.0252
     33 H3          1.5905    1.7378    0.9563 H         1 <0>         0.0545
     34 H4         -0.0169    1.9317    0.2165 H         1 <0>         0.0521
     35 H5          0.1306    1.6864    1.9733 H         1 <0>         0.0567
     36 H6          1.0221   -0.5938    1.5801 H         1 <0>         0.0725
     37 H7         -0.5853   -0.3999    0.8404 H         1 <0>         0.0625
     38 H8          0.4788    0.0522   -1.3532 H         1 <0>         0.0356
     39 H9          2.0861   -0.1417   -0.6135 H         1 <0>         0.0766
     40 H10        -1.0167   -1.9822   -0.0248 H         1 <0>         0.0928
     41 H11        -0.8784   -1.9580   -1.8037 H         1 <0>         0.0529
     42 H12        -1.2771   -4.3943   -0.4608 H         1 <0>         0.1186
     43 H13         1.2819   -1.8505   -2.8305 H         1 <0>         0.0445
     44 H14         2.7479   -1.9911   -1.8427 H         1 <0>         0.0919
     45 H15         2.5442   -8.4984   -1.8586 H         1 <0>         0.4054
     46 H16         0.9233   -8.4863   -1.4164 H         1 <0>         0.4140
     47 H17         5.2741   -3.7229   -0.4264 H         1 <0>         0.1384
     48 H18         7.1968   -1.9417   -3.8014 H         1 <0>         0.1370
     49 H19         3.3130   -3.6758   -4.2120 H         1 <0>         0.1341
     50 H20         6.5334   -0.8182   -5.4384 H         1 <0>         0.0570
     51 H21         7.2719   -2.3856   -5.8458 H         1 <0>         0.0558
     52 H22         6.2544   -1.5441   -7.0395 H         1 <0>         0.1043
     53 H23         8.9071   -2.4332   -2.6983 H         1 <0>         0.0558
     54 H24         8.1686   -0.8655   -2.2920 H         1 <0>         0.0571
     55 H25         9.3089   -1.6320   -1.1604 H         1 <0>         0.1046
@<TRIPOS>BOND
     1    1    2 1
     2    1   33 1
     3    1   34 1
     4    1   35 1
     5    2    3 1
     6    2   36 1
     7    2   37 1
     8    3    4 1
     9    3   38 1
    10    3   39 1
    11    4   10 1
    12    4    5 1
    13    5    6 1
    14    5   40 1
    15    5   41 1
    16    6    7 2
    17    6   42 1
    18    7   15 1
    19    7    8 1
    20    8    9 1
    21    8   10 1
    22    8   11 1
    23   10   43 1
    24   10   44 1
    25   11   12 1
    26   11   13 1
    27   11   23 1
    28   13   14 1
    29   13   19 1
    30   13   21 1
    31   14   15 2
    32   14   18 1
    33   15   16 1
    34   16   17 3
    35   18   45 1
    36   18   46 1
    37   19   20 3
    38   21   22 3
    39   23   28 ar
    40   23   24 ar
    41   24   25 ar
    42   24   47 1
    43   25   26 ar
    44   25   31 1
    45   26   27 ar
    46   26   48 1
    47   27   28 ar
    48   27   29 1
    49   28   49 1
    50   29   30 1
    51   30   50 1
    52   30   51 1
    53   30   52 1
    54   31   32 1
    55   32   53 1
    56   32   54 1
    57   32   55 1
@<TRIPOS>MOLECULE
ZINC02884095
   41    44     0     0     0
SMALL
USER_CHARGES

@<TRIPOS>ATOM
      1 C1         -0.0094    1.3429    0.0027 C.2       1 <0>        -0.2135
      2 C2          1.3384    1.7701   -0.0063 C.2       1 <0>        -0.1798
      3 C3          2.0988    0.6606   -0.0184 C.2       1 <0>        -0.0562
      4 O1          1.2877   -0.4098   -0.0171 O.3       1 <0>        -0.1670
      5 C4          0.0081   -0.0021   -0.0043 C.2       1 <0>        -0.0268
      6 C5          3.6053    0.6248   -0.0316 C.3       1 <0>         0.2356
      7 H1          3.9974    1.5788    0.3209 H         1 <0>         0.1436
      8 C6          4.1018    0.3589   -1.4573 C.3       1 <0>        -0.1559
      9 C7          3.5050   -0.9533   -1.9788 C.3       1 <0>         0.1312
     10 H2          2.4375   -0.8235   -2.1569 H         1 <0>         0.1333
     11 N1          3.7115   -2.0004   -0.9731 N.pl3     1 <0>        -0.3958
     12 C8          3.9808   -1.7471    0.3298 C.2       1 <0>         0.4508
     13 C9          4.1147   -2.9635    0.9729 C.2       1 <0>        -0.3516
     14 C10         3.9113   -3.9680   -0.0071 C.2       1 <0>         0.1139
     15 N2          3.6742   -3.3825   -1.1496 N.2       1 <0>        -0.2784
     16 C11         4.4102   -3.1744    2.3947 C.2       1 <0>         0.5994
     17 O2          4.5634   -2.2189    3.1325 O.2       1 <0>        -0.4917
     18 N3          4.5121   -4.4263    2.8833 N.am      1 <0>        -0.6561
     19 C12         4.8966   -4.6283    4.2076 C.ar      1 <0>         0.3715
     20 C13         5.1022   -5.9216    4.6753 C.ar      1 <0>        -0.1972
     21 C14         5.4837   -6.1085    5.9919 C.ar      1 <0>        -0.0360
     22 C15         5.6473   -4.9899    6.7996 C.ar      1 <0>        -0.1258
     23 C16         5.4259   -3.7340    6.2680 C.ar      1 <0>         0.1504
     24 N4          5.0678   -3.5871    5.0065 N.ar      1 <0>        -0.4615
     25 Cl1         6.1244   -5.1684    8.4592 Cl        1 <0>        -0.0561
     26 N5          4.0834   -0.4623    0.8450 N.pl3     1 <0>        -0.7018
     27 C17         4.1981   -1.3486   -3.2842 C.3       1 <0>         0.4574
     28 F1          5.5670   -1.5202   -3.0519 F         1 <0>        -0.1722
     29 F2          3.6519   -2.5462   -3.7581 F         1 <0>        -0.1583
     30 F3          4.0093   -0.3410   -4.2362 F         1 <0>        -0.1717
     31 H3         -0.8848    1.9752    0.0173 H         1 <0>         0.1528
     32 H4          1.6899    2.7913   -0.0045 H         1 <0>         0.1539
     33 H5         -0.8596   -0.6450   -0.0001 H         1 <0>         0.2043
     34 H6          3.7959    1.1794   -2.1065 H         1 <0>         0.1281
     35 H7          5.1894    0.2865   -1.4547 H         1 <0>         0.1105
     36 H8          3.9465   -5.0340    0.1625 H         1 <0>         0.1946
     37 H9          4.3178   -5.1867    2.3133 H         1 <0>         0.4180
     38 H10         4.9656   -6.7688    4.0197 H         1 <0>         0.1466
     39 H11         5.6502   -7.1013    6.3831 H         1 <0>         0.1491
     40 H12         5.5513   -2.8612    6.8917 H         1 <0>         0.1676
     41 H13         4.4489   -0.2869    1.7262 H         1 <0>         0.4406
@<TRIPOS>BOND
     1    1    5 2
     2    1    2 1
     3    1   31 1
     4    2    3 2
     5    2   32 1
     6    3    4 1
     7    3    6 1
     8    4    5 1
     9    5   33 1
    10    6    7 1
    11    6   26 1
    12    6    8 1
    13    8    9 1
    14    8   34 1
    15    8   35 1
    16    9   10 1
    17    9   11 1
    18    9   27 1
    19   11   15 1
    20   11   12 1
    21   12   13 2
    22   12   26 1
    23   13   14 1
    24   13   16 1
    25   14   15 2
    26   14   36 1
    27   16   17 2
    28   16   18 am
    29   18   19 1
    30   18   37 1
    31   19   24 ar
    32   19   20 ar
    33   20   21 ar
    34   20   38 1
    35   21   22 ar
    36   21   39 1
    37   22   23 ar
    38   22   25 1
    39   23   24 ar
    40   23   40 1
    41   26   41 1
    42   27   28 1
    43   27   29 1
    44   27   30 1
@<TRIPOS>MOLECULE
ZINC13124143
   50    53     0     0     0
SMALL
USER_CHARGES

@<TRIPOS>ATOM
      1 C1         -0.0187    1.5258    0.0104 C.3       1 <0>        -0.1536
      2 C2          0.0021   -0.0041    0.0020 C.3       1 <0>        -0.1323
      3 C3          0.7182   -0.4975   -1.2568 C.3       1 <0>         0.1441
      4 H1          1.7103   -0.0491   -1.3098 H         1 <0>         0.0883
      5 C4          0.8493   -2.0210   -1.2049 C.3       1 <0>        -0.1644
      6 N1         -0.0549   -0.1139   -2.4405 N.am      1 <0>        -0.7220
      7 C5          0.5610    0.0279   -3.6309 C.2       1 <0>         0.6070
      8 O1          1.7594   -0.1628   -3.7224 O.2       1 <0>        -0.5621
      9 C6         -0.2136    0.4122   -4.8169 C.2       1 <0>        -0.3515
     10 C7         -1.6062    0.6736   -4.8696 C.2       1 <0>         0.1169
     11 N2         -1.9176    0.9843   -6.0989 N.2       1 <0>        -0.2843
     12 N3         -0.7692    0.9417   -6.8875 N.pl3     1 <0>        -0.4067
     13 C8          0.2745    0.5952   -6.0970 C.2       1 <0>         0.4416
     14 N4          1.5674    0.4650   -6.5727 N.pl3     1 <0>        -0.7022
     15 C9          1.7232    0.4449   -8.0404 C.3       1 <0>         0.1999
     16 H2          1.4256   -0.5298   -8.4270 H         1 <0>         0.0963
     17 C10         0.8244    1.5329   -8.6391 C.3       1 <0>        -0.1540
     18 C11        -0.6451    1.2192   -8.3221 C.3       1 <0>         0.1296
     19 H3         -0.9745    0.3503   -8.8919 H         1 <0>         0.1373
     20 C12        -1.5058    2.4306   -8.6862 C.3       1 <0>         0.4569
     21 F1         -1.0748    3.5446   -7.9579 F         1 <0>        -0.1726
     22 F2         -1.3858    2.6934  -10.0550 F         1 <0>        -0.1724
     23 F3         -2.8437    2.1614   -8.3785 F         1 <0>        -0.1586
     24 C13         3.1613    0.7151   -8.4008 C.ar      1 <0>        -0.0965
     25 C14         3.8824    1.6620   -7.6975 C.ar      1 <0>        -0.0886
     26 C15         5.2020    1.9130   -8.0240 C.ar      1 <0>        -0.0961
     27 C16         5.8051    1.2158   -9.0583 C.ar      1 <0>         0.0454
     28 C17         5.0786    0.2620   -9.7668 C.ar      1 <0>         0.0356
     29 C18         3.7582    0.0116   -9.4303 C.ar      1 <0>        -0.0809
     30 O2          5.8868   -0.2791  -10.7246 O.3       1 <0>        -0.3057
     31 C19         6.9872    0.6392  -10.8628 C.3       1 <0>         0.2127
     32 O3          7.0684    1.2722   -9.5720 O.3       1 <0>        -0.3058
     33 H4          1.0039    1.9031    0.0027 H         1 <0>         0.0550
     34 H5         -0.5459    1.8868   -0.8726 H         1 <0>         0.0559
     35 H6         -0.5289    1.8773    0.9072 H         1 <0>         0.0561
     36 H7          0.5293   -0.3651    0.8851 H         1 <0>         0.0781
     37 H8         -1.0205   -0.3814    0.0098 H         1 <0>         0.0680
     38 H9          1.4245   -2.3064   -0.3242 H         1 <0>         0.0643
     39 H10        -0.1428   -2.4694   -1.1520 H         1 <0>         0.0561
     40 H11         1.3594   -2.3725   -2.1017 H         1 <0>         0.0608
     41 H12        -1.0102    0.0381   -2.3676 H         1 <0>         0.3976
     42 H13        -2.2914    0.6239   -4.0364 H         1 <0>         0.1931
     43 H14         2.3282    0.3914   -5.9755 H         1 <0>         0.4374
     44 H15         1.0937    2.4998   -8.2140 H         1 <0>         0.1038
     45 H16         0.9620    1.5624   -9.7199 H         1 <0>         0.1248
     46 H17         3.4138    2.2069   -6.8914 H         1 <0>         0.1410
     47 H18         5.7630    2.6532   -7.4729 H         1 <0>         0.1416
     48 H19         3.1937   -0.7307   -9.9751 H         1 <0>         0.1413
     49 H20         7.9091    0.1017  -11.0844 H         1 <0>         0.1356
     50 H21         6.7763    1.3758  -11.6380 H         1 <0>         0.0885
@<TRIPOS>BOND
     1    1    2 1
     2    1   33 1
     3    1   34 1
     4    1   35 1
     5    2    3 1
     6    2   36 1
     7    2   37 1
     8    3    4 1
     9    3    5 1
    10    3    6 1
    11    5   38 1
    12    5   39 1
    13    5   40 1
    14    6    7 am
    15    6   41 1
    16    7    8 2
    17    7    9 1
    18    9   13 2
    19    9   10 1
    20   10   11 2
    21   10   42 1
    22   11   12 1
    23   12   18 1
    24   12   13 1
    25   13   14 1
    26   14   15 1
    27   14   43 1
    28   15   16 1
    29   15   17 1
    30   15   24 1
    31   17   18 1
    32   17   44 1
    33   17   45 1
    34   18   19 1
    35   18   20 1
    36   20   21 1
    37   20   22 1
    38   20   23 1
    39   24   29 ar
    40   24   25 ar
    41   25   26 ar
    42   25   46 1
    43   26   27 ar
    44   26   47 1
    45   27   32 1
    46   27   28 ar
    47   28   29 ar
    48   28   30 1
    49   29   48 1
    50   30   31 1
    51   31   32 1
    52   31   49 1
    53   31   50 1
@<TRIPOS>MOLECULE
ZINC10470012
   55    58     0     0     0
SMALL
USER_CHARGES
N'-[[3-(1-piperidylsulfonyl)-2-thienyl]carbonyl]-8-thiabicyclo[5.3.0]deca-9,11-diene-9-carbohydrazide
@<TRIPOS>ATOM
      1 C1          5.0693   -0.6732   -0.6735 C.2       1 <0>        -0.1202
      2 C2          5.3871   -0.9347   -1.9685 C.2       1 <0>        -0.1854
      3 S1          4.0002   -1.7972   -2.5500 S.3       1 <0>         0.2258
      4 C3          3.0338   -1.7926   -1.0504 C.2       1 <0>        -0.1407
      5 C4          3.8625   -1.1023   -0.1798 C.2       1 <0>        -0.6214
      6 S2          3.3906   -0.7953    1.4898 S.o2      1 <0>         2.7003
      7 O1          3.6410   -1.9946    2.2097 O.2       1 <0>        -0.9426
      8 O2          2.1066   -0.1883    1.4439 O.2       1 <0>        -0.9219
      9 N1          4.4313    0.3438    2.0913 N.pl3     1 <0>        -0.9985
     10 C5          4.1931    1.7743    1.8552 C.3       1 <0>         0.1178
     11 C6          5.4542    2.3892    1.2401 C.3       1 <0>        -0.1395
     12 C7          6.6540    2.0923    2.1425 C.3       1 <0>        -0.1195
     13 C8          6.8553    0.5786    2.2449 C.3       1 <0>        -0.1390
     14 C9          5.6101   -0.0568    2.8714 C.3       1 <0>         0.1123
     15 C10         1.7079   -2.3670   -0.8038 C.2       1 <0>         0.5890
     16 O3          1.1605   -2.1957    0.2695 O.2       1 <0>        -0.4904
     17 N2          1.0951   -3.0849   -1.7658 N.am      1 <0>        -0.5054
     18 N3         -0.1722   -3.6339   -1.5302 N.am      1 <0>        -0.5135
     19 C11        -0.7850   -4.3518   -2.4922 C.2       1 <0>         0.6151
     20 O4         -0.2376   -4.5232   -3.5656 O.2       1 <0>        -0.5222
     21 C12        -2.1109   -4.9263   -2.2457 C.2       1 <0>        -0.2523
     22 C13        -2.9036   -5.6857   -3.0876 C.2       1 <0>        -0.0436
     23 C14        -4.1334   -6.1225   -2.6103 C.2       1 <0>        -0.1430
     24 C15        -4.4675   -5.7388   -1.3572 C.2       1 <0>        -0.1428
     25 S3         -3.1228   -4.8359   -0.7770 S.3       1 <0>         0.1544
     26 C16        -5.7624   -6.0375   -0.6360 C.3       1 <0>        -0.0436
     27 C17        -5.7866   -7.5492   -0.3525 C.3       1 <0>        -0.1124
     28 C18        -6.1820   -8.3094   -1.5967 C.3       1 <0>        -0.1215
     29 C19        -5.1590   -8.3662   -2.7018 C.3       1 <0>        -0.1160
     30 C20        -5.0412   -7.0341   -3.4445 C.3       1 <0>        -0.0544
     31 H1          5.7580   -0.1337   -0.0402 H         1 <0>         0.1564
     32 H2          6.2857   -0.6693   -2.5055 H         1 <0>         0.2031
     33 H3          3.9696    2.2684    2.8007 H         1 <0>         0.0801
     34 H4          3.3549    1.8969    1.1693 H         1 <0>         0.0895
     35 H5          5.3257    3.4677    1.1488 H         1 <0>         0.0792
     36 H6          5.6253    1.9579    0.2537 H         1 <0>         0.0665
     37 H7          7.5485    2.5497    1.7196 H         1 <0>         0.0670
     38 H8          6.4716    2.5024    3.1358 H         1 <0>         0.0684
     39 H9          7.0132    0.1644    1.2491 H         1 <0>         0.0654
     40 H10         7.7240    0.3685    2.8688 H         1 <0>         0.0805
     41 H11         5.5021    0.2880    3.8998 H         1 <0>         0.0802
     42 H12         5.7068   -1.1424    2.8561 H         1 <0>         0.0952
     43 H13         1.5313   -3.2215   -2.6214 H         1 <0>         0.4352
     44 H14        -0.6084   -3.4974   -0.6747 H         1 <0>         0.4363
     45 H15        -2.5763   -5.9316   -4.0870 H         1 <0>         0.1469
     46 H16        -5.8015   -5.4833    0.3017 H         1 <0>         0.0825
     47 H17        -6.6094   -5.7630   -1.2648 H         1 <0>         0.0932
     48 H18        -4.7961   -7.8721   -0.0318 H         1 <0>         0.0667
     49 H19        -6.5052   -7.7562    0.4405 H         1 <0>         0.0752
     50 H20        -6.4223   -9.3320   -1.3058 H         1 <0>         0.0614
     51 H21        -7.0875   -7.8538   -1.9976 H         1 <0>         0.0606
     52 H22        -4.1891   -8.6201   -2.2739 H         1 <0>         0.0630
     53 H23        -5.4459   -9.1429   -3.4106 H         1 <0>         0.0687
     54 H24        -6.0266   -6.5801   -3.5494 H         1 <0>         0.0777
     55 H25        -4.6004   -7.1962   -4.4282 H         1 <0>         0.0763
@<TRIPOS>BOND
     1    1    5 1
     2    1    2 2
     3    1   31 1
     4    2    3 1
     5    2   32 1
     6    3    4 1
     7    4    5 2
     8    4   15 1
     9    5    6 1
    10    6    7 2
    11    6    8 2
    12    6    9 1
    13    9   14 1
    14    9   10 1
    15   10   11 1
    16   10   33 1
    17   10   34 1
    18   11   12 1
    19   11   35 1
    20   11   36 1
    21   12   13 1
    22   12   37 1
    23   12   38 1
    24   13   14 1
    25   13   39 1
    26   13   40 1
    27   14   41 1
    28   14   42 1
    29   15   16 2
    30   15   17 am
    31   17   18 1
    32   17   43 1
    33   18   19 am
    34   18   44 1
    35   19   20 2
    36   19   21 1
    37   21   25 1
    38   21   22 2
    39   22   23 1
    40   22   45 1
    41   23   30 1
    42   23   24 2
    43   24   25 1
    44   24   26 1
    45   26   27 1
    46   26   46 1
    47   26   47 1
    48   27   28 1
    49   27   48 1
    50   27   49 1
    51   28   29 1
    52   28   50 1
    53   28   51 1
    54   29   30 1
    55   29   52 1
    56   29   53 1
    57   30   54 1
    58   30   55 1
@<TRIPOS>MOLECULE
ZINC14269388
   51    55     0     0     0
SMALL
USER_CHARGES
N-[[4-(5-methyl-1,3-benzoxazol-2-yl)phenyl]carbamothioyl]-2,3-dihydro-1,4-benzodioxine-6-carboxamide
@<TRIPOS>ATOM
      1 C1         15.7911   -7.6697   -0.6210 C.3       1 <0>        -0.1136
      2 C2         14.2889   -7.7844   -0.5856 C.ar      1 <0>        -0.0842
      3 C3         13.6916   -9.0348   -0.6487 C.ar      1 <0>        -0.0914
      4 C4         12.3177   -9.1568   -0.6173 C.ar      1 <0>        -0.0881
      5 C5         11.5253   -8.0234   -0.5222 C.ar      1 <0>         0.0046
      6 C6         12.1255   -6.7554   -0.4586 C.ar      1 <0>         0.0307
      7 C7         13.5181   -6.6475   -0.4913 C.ar      1 <0>        -0.0634
      8 N1         11.1169   -5.8499   -0.3771 N.2       1 <0>        -0.4661
      9 C8          9.9748   -6.4907   -0.3805 C.2       1 <0>         0.2947
     10 O1         10.1904   -7.8169   -0.4711 O.3       1 <0>        -0.2085
     11 C9          8.6455   -5.8523   -0.3029 C.ar      1 <0>        -0.0252
     12 C10         7.4900   -6.6371   -0.3203 C.ar      1 <0>        -0.0733
     13 C11         6.2517   -6.0385   -0.2472 C.ar      1 <0>        -0.1225
     14 C12         6.1509   -4.6543   -0.1562 C.ar      1 <0>         0.1495
     15 C13         7.2993   -3.8697   -0.1444 C.ar      1 <0>        -0.0770
     16 C14         8.5408   -4.4623   -0.2114 C.ar      1 <0>        -0.0521
     17 N2          4.8945   -4.0510   -0.0823 N.pl3     1 <0>        -0.6239
     18 C15         4.6875   -3.0277    0.7700 C.2       1 <0>         0.5073
     19 S1          5.9204   -2.5602    1.8618 S.2       1 <0>        -0.4693
     20 N3          3.5097   -2.3724    0.7627 N.am      1 <0>        -0.6374
     21 C16         3.3027   -1.3491    1.6151 C.2       1 <0>         0.5399
     22 O2          4.1781   -1.0171    2.3903 O.2       1 <0>        -0.3967
     23 C17         2.0135   -0.6318    1.6071 C.ar      1 <0>        -0.1366
     24 C18         1.0056   -1.0116    0.7168 C.ar      1 <0>        -0.0832
     25 C19        -0.1963   -0.3396    0.7112 C.ar      1 <0>        -0.1181
     26 C20        -0.4125    0.7171    1.5884 C.ar      1 <0>         0.0844
     27 C21         0.5869    1.0990    2.4801 C.ar      1 <0>         0.0467
     28 C22         1.7964    0.4290    2.4901 C.ar      1 <0>        -0.0443
     29 O3          0.3874    2.1260    3.3512 O.3       1 <0>        -0.3010
     30 C23        -0.6964    3.0151    3.0604 C.3       1 <0>         0.0188
     31 C24        -1.9271    2.1713    2.7021 C.3       1 <0>         0.0180
     32 O4         -1.6039    1.3714    1.5590 O.3       1 <0>        -0.3016
     33 H1         16.1824   -7.7073    0.3957 H         1 <0>         0.0753
     34 H2         16.2050   -8.4950   -1.2004 H         1 <0>         0.0714
     35 H3         16.0724   -6.7238   -1.0838 H         1 <0>         0.0706
     36 H4         14.3066   -9.9194   -0.7232 H         1 <0>         0.1419
     37 H5         11.8602  -10.1339   -0.6662 H         1 <0>         0.1372
     38 H6         13.9880   -5.6764   -0.4425 H         1 <0>         0.1376
     39 H7          7.5675   -7.7120   -0.3913 H         1 <0>         0.1396
     40 H8          5.3579   -6.6447   -0.2603 H         1 <0>         0.1365
     41 H9          7.2175   -2.7948   -0.0780 H         1 <0>         0.1508
     42 H10         9.4322   -3.8527   -0.1981 H         1 <0>         0.1474
     43 H11         4.1704   -4.3681   -0.6444 H         1 <0>         0.4100
     44 H12         2.8111   -2.6373    0.1441 H         1 <0>         0.4101
     45 H13         1.1693   -1.8316    0.0332 H         1 <0>         0.1327
     46 H14        -0.9741   -0.6344    0.0223 H         1 <0>         0.1454
     47 H15         2.5730    0.7259    3.1794 H         1 <0>         0.1542
     48 H16        -0.9133    3.6287    3.9349 H         1 <0>         0.1283
     49 H17        -0.4311    3.6552    2.2190 H         1 <0>         0.0820
     50 H18        -2.1878    1.5267    3.5415 H         1 <0>         0.0835
     51 H19        -2.7659    2.8262    2.4665 H         1 <0>         0.1283
@<TRIPOS>BOND
     1    1    2 1
     2    1   33 1
     3    1   34 1
     4    1   35 1
     5    2    7 ar
     6    2    3 ar
     7    3    4 ar
     8    3   36 1
     9    4    5 ar
    10    4   37 1
    11    5   10 1
    12    5    6 ar
    13    6    7 ar
    14    6    8 1
    15    7   38 1
    16    8    9 2
    17    9   10 1
    18    9   11 1
    19   11   16 ar
    20   11   12 ar
    21   12   13 ar
    22   12   39 1
    23   13   14 ar
    24   13   40 1
    25   14   15 ar
    26   14   17 1
    27   15   16 ar
    28   15   41 1
    29   16   42 1
    30   17   18 1
    31   17   43 1
    32   18   19 2
    33   18   20 1
    34   20   21 am
    35   20   44 1
    36   21   22 2
    37   21   23 1
    38   23   28 ar
    39   23   24 ar
    40   24   25 ar
    41   24   45 1
    42   25   26 ar
    43   25   46 1
    44   26   32 1
    45   26   27 ar
    46   27   28 ar
    47   27   29 1
    48   28   47 1
    49   29   30 1
    50   30   31 1
    51   30   48 1
    52   30   49 1
    53   31   32 1
    54   31   50 1
    55   31   51 1
@<TRIPOS>MOLECULE
ZINC28451119
   59    62     0     0     0
SMALL
USER_CHARGES
N-[4-(p-tolyl)thiazol-2-yl]-2-[(5S,9S)-7,7,9-trimethyl-1,3-dioxo-2,4-diazaspiro[4.5]decan-2-yl]acetamide
@<TRIPOS>ATOM
      1 C1          5.4379   -5.6451   -0.0757 C.3       1 <0>        -0.1196
      2 C2          4.2424   -4.7277   -0.0609 C.ar      1 <0>        -0.0794
      3 C3          4.4260   -3.3566   -0.0557 C.ar      1 <0>        -0.1243
      4 C4          3.3350   -2.5117   -0.0418 C.ar      1 <0>        -0.0816
      5 C5          2.0461   -3.0423   -0.0329 C.ar      1 <0>        -0.0318
      6 C6          1.8671   -4.4246   -0.0328 C.ar      1 <0>        -0.0989
      7 C7          2.9655   -5.2599   -0.0521 C.ar      1 <0>        -0.1220
      8 C8          0.8695   -2.1394   -0.0174 C.2       1 <0>         0.1204
      9 C9         -0.3964   -2.6557   -0.0086 C.2       1 <0>        -0.2412
     10 S1         -1.3665   -1.1538    0.0083 S.3       1 <0>         0.1109
     11 C10         0.0021   -0.0041    0.0020 C.2       1 <0>         0.3239
     12 N1          1.0353   -0.8252   -0.0176 N.2       1 <0>        -0.5310
     13 N2         -0.0168    1.3853    0.0097 N.am      1 <0>        -0.6195
     14 C11        -1.1930    2.0432    0.0188 C.2       1 <0>         0.5046
     15 O1         -2.2350    1.4226    0.0204 O.2       1 <0>        -0.4873
     16 C12        -1.2134    3.5501    0.0271 C.3       1 <0>         0.1095
     17 N3         -2.6005    4.0194    0.0362 N.am      1 <0>        -0.5684
     18 C13        -3.3346    4.2434   -1.0751 C.2       1 <0>         0.5368
     19 O2         -3.0111    3.9732   -2.2120 O.2       1 <0>        -0.4488
     20 C14        -4.6249    4.8623   -0.5950 C.3       1 <0>         0.1310
     21 C15        -5.8243    4.0832   -1.1150 C.3       1 <0>        -0.1069
     22 C16        -6.0244    4.3630   -2.6052 C.3       1 <0>        -0.0967
     23 H1         -5.1196    4.0868   -3.1665 H         1 <0>         0.0905
     24 C17        -6.3159    5.8510   -2.7877 C.3       1 <0>        -0.1043
     25 C18        -5.1401    6.6981   -2.3142 C.3       1 <0>        -0.0610
     26 C19        -4.6967    6.3432   -0.9057 C.3       1 <0>        -0.1016
     27 C20        -5.5925    8.1743   -2.3163 C.3       1 <0>        -0.1471
     28 C21        -3.9729    6.5743   -3.2976 C.3       1 <0>        -0.1622
     29 C22        -7.2151    3.5462   -3.1175 C.3       1 <0>        -0.1476
     30 N4         -4.5513    4.6938    0.8744 N.am      1 <0>        -0.7327
     31 C23        -3.3100    4.2557    1.1457 C.2       1 <0>         0.7183
     32 O3         -2.8786    4.0937    2.2709 O.2       1 <0>        -0.5413
     33 H2          6.3601   -5.0455   -0.0811 H         1 <0>         0.0661
     34 H3          5.4052   -6.2755   -0.9765 H         1 <0>         0.0711
     35 H4          5.4210   -6.2838    0.8197 H         1 <0>         0.0711
     36 H5          5.4251   -2.9466   -0.0630 H         1 <0>         0.1241
     37 H6          3.4795   -1.4414   -0.0374 H         1 <0>         0.1315
     38 H7          0.8708   -4.8412   -0.0214 H         1 <0>         0.1248
     39 H8          2.8281   -6.3311   -0.0562 H         1 <0>         0.1255
     40 H9         -0.7207   -3.6858   -0.0109 H         1 <0>         0.1983
     41 H10         0.9282    1.9482    0.0084 H         1 <0>         0.4577
     42 H11        -0.6956    3.9188    0.9248 H         1 <0>         0.1413
     43 H12        -0.7041    3.9287   -0.8714 H         1 <0>         0.1378
     44 H13        -5.6534    3.0064   -0.9689 H         1 <0>         0.0765
     45 H14        -6.7266    4.3891   -0.5652 H         1 <0>         0.0869
     46 H15        -6.4971    6.0613   -3.8521 H         1 <0>         0.0698
     47 H16        -7.2067    6.1245   -2.2032 H         1 <0>         0.0657
     48 H17        -5.4134    6.8263   -0.2252 H         1 <0>         0.0884
     49 H18        -3.7026    6.7946   -0.7718 H         1 <0>         0.0717
     50 H19        -4.7628    8.8125   -1.9781 H         1 <0>         0.0555
     51 H20        -6.4492    8.2962   -1.6372 H         1 <0>         0.0560
     52 H21        -5.8877    8.4659   -3.3350 H         1 <0>         0.0603
     53 H22        -3.1309    7.1889   -2.9465 H         1 <0>         0.0504
     54 H23        -4.2919    6.9226   -4.2910 H         1 <0>         0.0577
     55 H24        -3.6574    5.5225   -3.3617 H         1 <0>         0.0789
     56 H25        -7.3621    3.7450   -4.1894 H         1 <0>         0.0594
     57 H26        -8.1215    3.8325   -2.5638 H         1 <0>         0.0560
     58 H27        -7.0166    2.4748   -2.9671 H         1 <0>         0.0562
     59 H28        -5.4274    4.9230    1.4989 H         1 <0>         0.4708
@<TRIPOS>BOND
     1    1    2 1
     2    1   33 1
     3    1   34 1
     4    1   35 1
     5    2    7 ar
     6    2    3 ar
     7    3    4 ar
     8    3   36 1
     9    4    5 ar
    10    4   37 1
    11    5    6 ar
    12    5    8 1
    13    6    7 ar
    14    6   38 1
    15    7   39 1
    16    8   12 1
    17    8    9 2
    18    9   10 1
    19    9   40 1
    20   10   11 1
    21   11   12 2
    22   11   13 1
    23   13   14 am
    24   13   41 1
    25   14   15 2
    26   14   16 1
    27   16   17 1
    28   16   42 1
    29   16   43 1
    30   17   31 am
    31   17   18 am
    32   18   19 2
    33   18   20 1
    34   20   26 1
    35   20   21 1
    36   20   30 1
    37   21   22 1
    38   21   44 1
    39   21   45 1
    40   22   23 1
    41   22   24 1
    42   22   29 1
    43   24   25 1
    44   24   46 1
    45   24   47 1
    46   25   26 1
    47   25   27 1
    48   25   28 1
    49   26   48 1
    50   26   49 1
    51   27   50 1
    52   27   51 1
    53   27   52 1
    54   28   53 1
    55   28   54 1
    56   28   55 1
    57   29   56 1
    58   29   57 1
    59   29   58 1
    60   30   31 am
    61   30   59 1
    62   31   32 2
@<TRIPOS>MOLECULE
ZINC39584689
   41    43     0     0     0
SMALL
USER_CHARGES

@<TRIPOS>ATOM
      1 C1         -0.0173    1.4248    0.0099 C.3       1 <0>         0.0218
      2 O1          0.0021   -0.0041    0.0020 O.3       1 <0>        -0.3005
      3 C2          0.6263   -0.6188    1.0422 C.ar      1 <0>         0.1088
      4 C3          1.2003    0.1367    2.0477 C.ar      1 <0>        -0.1530
      5 C4          1.8409   -0.4978    3.1151 C.ar      1 <0>        -0.0224
      6 C5          1.8983   -1.8930    3.1613 C.ar      1 <0>        -0.0712
      7 C6          1.3232   -2.6405    2.1543 C.ar      1 <0>        -0.0897
      8 C7          0.6820   -2.0094    1.0972 C.ar      1 <0>         0.1232
      9 O2          0.1120   -2.7505    0.1101 O.3       1 <0>        -0.4716
     10 Br1         1.4018   -4.5287    2.2183 Br        1 <0>        -0.0157
     11 C8          2.4551    0.3031    4.1897 C.2       1 <0>         0.1172
     12 N1          3.0497   -0.2879    5.1805 N.2       1 <0>        -0.2177
     13 N2          3.6334    0.4732    6.2017 N.am      1 <0>        -0.5779
     14 C9          4.2509   -0.1405    7.2306 C.2       1 <0>         0.5725
     15 O3          4.3013   -1.3518    7.2724 O.2       1 <0>        -0.4642
     16 C10         4.8788    0.6782    8.3291 C.3       1 <0>        -0.0569
     17 H1          5.3890    1.5480    7.9154 H         1 <0>         0.1780
     18 C11         3.8337    1.1027    9.3455 C.2       1 <0>        -0.1461
     19 C12         4.2471    0.5290   10.4920 C.2       1 <0>         0.0255
     20 N3          5.3917   -0.1735   10.2851 N.2       1 <0>        -0.1422
     21 N4          5.8095   -0.1423    9.1217 N.2       1 <0>        -0.1086
     22 C13         3.5510    0.6478   11.7969 C.ar      1 <0>        -0.0329
     23 C14         2.3766    1.3913   11.8976 C.ar      1 <0>        -0.0866
     24 C15         1.7329    1.4989   13.1134 C.ar      1 <0>        -0.1102
     25 C16         2.2522    0.8700   14.2322 C.ar      1 <0>        -0.0226
     26 C17         3.4186    0.1302   14.1373 C.ar      1 <0>        -0.1097
     27 C18         4.0663    0.0116   12.9246 C.ar      1 <0>        -0.0703
     28 Cl1         1.4384    1.0100   15.7592 Cl        1 <0>        -0.0609
     29 H2          1.0053    1.8021    0.0021 H         1 <0>         0.0588
     30 H3         -0.5445    1.7859   -0.8732 H         1 <0>         0.1063
     31 H4         -0.5275    1.7763    0.9067 H         1 <0>         0.0591
     32 H5          1.1540    1.2150    2.0080 H         1 <0>         0.1461
     33 H6          2.3931   -2.3863    3.9849 H         1 <0>         0.1525
     34 H7          0.7078   -2.9520   -0.6244 H         1 <0>         0.3948
     35 H8          2.4102    1.3815    4.1525 H         1 <0>         0.1295
     36 H9          3.5931    1.4418    6.1683 H         1 <0>         0.3904
     37 H10         2.9625    1.7207    9.1864 H         1 <0>         0.1832
     38 H11         1.9711    1.8828   11.0256 H         1 <0>         0.1341
     39 H12         0.8228    2.0748   13.1925 H         1 <0>         0.1406
     40 H13         3.8200   -0.3582   15.0129 H         1 <0>         0.1419
     41 H14         4.9735   -0.5697   12.8506 H         1 <0>         0.1466
@<TRIPOS>BOND
     1    1    2 1
     2    1   29 1
     3    1   30 1
     4    1   31 1
     5    2    3 1
     6    3    8 ar
     7    3    4 ar
     8    4    5 ar
     9    4   32 1
    10    5    6 ar
    11    5   11 1
    12    6    7 ar
    13    6   33 1
    14    7    8 ar
    15    7   10 1
    16    8    9 1
    17    9   34 1
    18   11   12 2
    19   11   35 1
    20   12   13 1
    21   13   14 am
    22   13   36 1
    23   14   15 2
    24   14   16 1
    25   16   17 1
    26   16   21 1
    27   16   18 1
    28   18   19 2
    29   18   37 1
    30   19   20 1
    31   19   22 1
    32   20   21 2
    33   22   27 ar
    34   22   23 ar
    35   23   24 ar
    36   23   38 1
    37   24   25 ar
    38   24   39 1
    39   25   26 ar
    40   25   28 1
    41   26   27 ar
    42   26   40 1
    43   27   41 1
@<TRIPOS>MOLECULE
ZINC09281352
   52    56     0     0     0
SMALL
USER_CHARGES

@<TRIPOS>ATOM
      1 C1         -0.0187    1.5258    0.0104 C.3       1 <0>        -0.1463
      2 C2          0.0021   -0.0041    0.0020 C.3       1 <0>        -0.0234
      3 C3          0.7182   -0.4975   -1.2568 C.3       1 <0>        -0.1416
      4 C4          0.7309   -0.5033    1.2229 C.2       1 <0>         0.1373
      5 C5          0.2005   -1.3218    2.2104 C.2       1 <0>        -0.2534
      6 C6          1.1769   -1.5473    3.1431 C.2       1 <0>         0.2884
      7 N1          2.2770   -0.8896    2.7447 N.pl3     1 <0>        -0.4405
      8 H1          3.1286   -0.8677    3.2086 H         1 <0>         0.4495
      9 N2          1.9787   -0.2444    1.5342 N.2       1 <0>        -0.2508
     10 O1          0.9729   -2.3140    4.2427 O.3       1 <0>        -0.2274
     11 C7         -0.2960   -2.6472    4.5544 C.2       1 <0>         0.4549
     12 C8         -1.3436   -2.4845    3.7125 C.2       1 <0>        -0.2482
     13 C9         -1.1766   -1.9102    2.3326 C.3       1 <0>         0.1263
     14 C10        -1.4219   -2.9431    1.2800 C.ar      1 <0>        -0.1297
     15 C11        -0.7927   -4.1384    1.0065 C.ar      1 <0>        -0.0440
     16 C12        -1.2787   -4.8761   -0.0676 C.ar      1 <0>        -0.1448
     17 C13        -2.3430   -4.4289   -0.8237 C.ar      1 <0>        -0.0800
     18 C14        -2.9814   -3.2284   -0.5544 C.ar      1 <0>        -0.1399
     19 C15        -2.5038   -2.4784    0.5215 C.ar      1 <0>         0.1542
     20 N3         -2.9464   -1.2616    1.0098 N.am      1 <0>        -0.5472
     21 C16        -2.2256   -0.8512    2.0748 C.2       1 <0>         0.5422
     22 O2         -2.3882    0.1721    2.7052 O.2       1 <0>        -0.4741
     23 C17        -4.0648   -0.5075    0.4381 C.3       1 <0>         0.1497
     24 C18        -5.3475   -0.9244    1.1103 C.ar      1 <0>        -0.1128
     25 C19        -6.0872   -1.9735    0.5971 C.ar      1 <0>        -0.0865
     26 C20        -7.2637   -2.3564    1.2132 C.ar      1 <0>        -0.1120
     27 C21        -7.7011   -1.6894    2.3436 C.ar      1 <0>        -0.0233
     28 C22        -6.9604   -0.6395    2.8567 C.ar      1 <0>        -0.1094
     29 C23        -5.7811   -0.2613    2.2431 C.ar      1 <0>        -0.0819
     30 Cl1        -9.1790   -2.1693    3.1176 Cl        1 <0>        -0.0674
     31 C24        -2.6512   -2.8717    4.1493 C.1       1 <0>         0.2621
     32 N4         -3.6886   -3.1788    4.4957 N.1       1 <0>        -0.4190
     33 N5         -0.5392   -3.1818    5.7952 N.pl3     1 <0>        -0.8238
     34 H2          1.0039    1.9031    0.0027 H         1 <0>         0.0652
     35 H3         -0.5459    1.8868   -0.8726 H         1 <0>         0.0653
     36 H4         -0.5289    1.8773    0.9072 H         1 <0>         0.0588
     37 H5         -1.0205   -0.3814    0.0098 H         1 <0>         0.0869
     38 H6          1.7408   -0.1202   -1.2645 H         1 <0>         0.0642
     39 H7          0.7330   -1.5874   -1.2628 H         1 <0>         0.0589
     40 H8          0.1910   -0.1364   -2.1398 H         1 <0>         0.0649
     41 H9          0.0404   -4.4863    1.5992 H         1 <0>         0.1305
     42 H10        -0.8132   -5.8186   -0.3154 H         1 <0>         0.1256
     43 H11        -2.6885   -5.0321   -1.6502 H         1 <0>         0.1271
     44 H12        -3.8136   -2.8875   -1.1523 H         1 <0>         0.1324
     45 H13        -3.9021    0.5588    0.5952 H         1 <0>         0.1034
     46 H14        -4.1317   -0.7112   -0.6306 H         1 <0>         0.1008
     47 H15        -5.7458   -2.4939   -0.2856 H         1 <0>         0.1316
     48 H16        -7.8416   -3.1758    0.8119 H         1 <0>         0.1350
     49 H17        -7.3015   -0.1183    3.7390 H         1 <0>         0.1339
     50 H18        -5.2004    0.5552    2.6463 H         1 <0>         0.1342
     51 H19         0.1918   -3.3103    6.4196 H         1 <0>         0.4143
     52 H20        -1.4421   -3.4310    6.0474 H         1 <0>         0.4297
@<TRIPOS>BOND
     1    1    2 1
     2    1   34 1
     3    1   35 1
     4    1   36 1
     5    2    3 1
     6    2    4 1
     7    2   37 1
     8    3   38 1
     9    3   39 1
    10    3   40 1
    11    4    9 2
    12    4    5 1
    13    5   13 1
    14    5    6 2
    15    6    7 1
    16    6   10 1
    17    7    8 1
    18    7    9 1
    19   10   11 1
    20   11   12 2
    21   11   33 1
    22   12   13 1
    23   12   31 1
    24   13   21 1
    25   13   14 1
    26   14   19 ar
    27   14   15 ar
    28   15   16 ar
    29   15   41 1
    30   16   17 ar
    31   16   42 1
    32   17   18 ar
    33   17   43 1
    34   18   19 ar
    35   18   44 1
    36   19   20 1
    37   20   21 am
    38   20   23 1
    39   21   22 2
    40   23   24 1
    41   23   45 1
    42   23   46 1
    43   24   29 ar
    44   24   25 ar
    45   25   26 ar
    46   25   47 1
    47   26   27 ar
    48   26   48 1
    49   27   28 ar
    50   27   30 1
    51   28   29 ar
    52   28   49 1
    53   29   50 1
    54   31   32 3
    55   33   51 1
    56   33   52 1
@<TRIPOS>MOLECULE
ZINC12789683
   44    47     0     0     0
SMALL
USER_CHARGES
(2S)-1-[[3-(3-bromophenyl)-1,2,4-oxadiazol-5-yl]methyl]-2-methyl-indoline-5-sulfonamide
@<TRIPOS>ATOM
      1 C1          2.0649   -0.4371   -1.8621 C.3       1 <0>        -0.1901
      2 C2          3.5083   -0.1196   -2.2576 C.3       1 <0>         0.0654
      3 H1          4.1178   -1.0233   -2.2589 H         1 <0>         0.1069
      4 C3          3.5584    0.5777   -3.6366 C.3       1 <0>        -0.0788
      5 C4          3.5318    2.0485   -3.2714 C.ar      1 <0>        -0.1530
      6 C5          3.2633    3.1733   -4.0231 C.ar      1 <0>         0.0231
      7 C6          3.2927    4.4241   -3.4337 C.ar      1 <0>        -0.6963
      8 C7          3.5916    4.5454   -2.0888 C.ar      1 <0>         0.0107
      9 C8          3.8639    3.4242   -1.3335 C.ar      1 <0>        -0.1562
     10 C9          3.8396    2.1602   -1.9209 C.ar      1 <0>         0.1547
     11 N1          4.0864    0.9020   -1.3577 N.pl3     1 <0>        -0.4620
     12 C10         3.5077    0.8053   -0.0110 C.3       1 <0>         0.1364
     13 C11         3.8004   -0.5561    0.5651 C.2       1 <0>         0.1825
     14 N2          4.9037   -0.9256    1.1664 N.2       1 <0>        -0.4454
     15 C12         4.7140   -2.2194    1.5105 C.2       1 <0>         0.2143
     16 N3          3.5185   -2.5563    1.1019 N.2       1 <0>        -0.3650
     17 O1          2.9828   -1.6136    0.5583 O.3       1 <0>         0.0890
     18 C13         5.6819   -3.0937    2.2189 C.ar      1 <0>        -0.0202
     19 C14         6.9299   -2.5977    2.5908 C.ar      1 <0>        -0.0587
     20 C15         7.8242   -3.4129    3.2544 C.ar      1 <0>        -0.1137
     21 C16         7.4883   -4.7238    3.5407 C.ar      1 <0>        -0.0690
     22 C17         6.2526   -5.2237    3.1688 C.ar      1 <0>        -0.0949
     23 C18         5.3480   -4.4145    2.5092 C.ar      1 <0>        -0.0551
     24 Br1         5.8020   -7.0173    3.5635 Br        1 <0>        -0.0361
     25 S1          2.9492    5.8606   -4.3945 S.o2      1 <0>         2.7047
     26 O2          2.1646    5.4324   -5.4992 O.2       1 <0>        -0.9638
     27 O3          2.5056    6.8598   -3.4868 O.2       1 <0>        -0.9632
     28 N4          4.3902    6.3908   -5.0148 N.pl3     1 <0>        -1.2504
     29 H2          1.4410    0.4411   -2.0282 H         1 <0>         0.0692
     30 H3          1.6958   -1.2648   -2.4678 H         1 <0>         0.0826
     31 H4          2.0294   -0.7139   -0.8084 H         1 <0>         0.0726
     32 H5          2.6867    0.3127   -4.2350 H         1 <0>         0.0943
     33 H6          4.4782    0.3278   -4.1654 H         1 <0>         0.0959
     34 H7          3.0299    3.0771   -5.0731 H         1 <0>         0.1451
     35 H8          3.6121    5.5221   -1.6284 H         1 <0>         0.1496
     36 H9          4.0971    3.5257   -0.2839 H         1 <0>         0.1372
     37 H10         2.4290    0.9516   -0.0677 H         1 <0>         0.0987
     38 H11         3.9452    1.5721    0.6284 H         1 <0>         0.1313
     39 H12         7.1952   -1.5757    2.3640 H         1 <0>         0.1436
     40 H13         8.7899   -3.0278    3.5469 H         1 <0>         0.1437
     41 H14         8.1931   -5.3597    4.0559 H         1 <0>         0.1411
     42 H15         4.3837   -4.8050    2.2195 H         1 <0>         0.1412
     43 H16         5.2099    5.9124   -4.8144 H         1 <0>         0.4170
     44 H17         4.4146    7.1798   -5.5786 H         1 <0>         0.4214
@<TRIPOS>BOND
     1    1    2 1
     2    1   29 1
     3    1   30 1
     4    1   31 1
     5    2    3 1
     6    2   11 1
     7    2    4 1
     8    4    5 1
     9    4   32 1
    10    4   33 1
    11    5   10 ar
    12    5    6 ar
    13    6    7 ar
    14    6   34 1
    15    7    8 ar
    16    7   25 1
    17    8    9 ar
    18    8   35 1
    19    9   10 ar
    20    9   36 1
    21   10   11 1
    22   11   12 1
    23   12   13 1
    24   12   37 1
    25   12   38 1
    26   13   17 1
    27   13   14 2
    28   14   15 1
    29   15   16 2
    30   15   18 1
    31   16   17 1
    32   18   23 ar
    33   18   19 ar
    34   19   20 ar
    35   19   39 1
    36   20   21 ar
    37   20   40 1
    38   21   22 ar
    39   21   41 1
    40   22   23 ar
    41   22   24 1
    42   23   42 1
    43   25   26 2
    44   25   27 2
    45   25   28 1
    46   28   43 1
    47   28   44 1
@<TRIPOS>MOLECULE
ZINC22852005
   48    52     0     0     0
SMALL
USER_CHARGES
5-[(R)-(4-chlorophenyl)-(4-hydroxy-1-piperidyl)methyl]-2-(2-furyl)thiazolo[2,3-e][1,2,4]triazol-6-ol
@<TRIPOS>ATOM
      1 C1          1.2343    0.3147    0.4451 C.2       1 <0>        -0.2178
      2 C2         -0.0105   -0.3404    0.3592 C.2       1 <0>        -0.1389
      3 C3         -0.9645    0.6279    0.3752 C.2       1 <0>         0.0538
      4 O1         -0.3487    1.8216    0.4757 O.3       1 <0>        -0.1597
      5 C4          0.9809    1.6361    0.5145 C.2       1 <0>        -0.0147
      6 C5         -2.4241    0.4087    0.2996 C.2       1 <0>         0.3090
      7 N1         -3.0272   -0.7838    0.1975 N.2       1 <0>        -0.4777
      8 C6         -4.3187   -0.6112    0.1580 C.2       1 <0>         0.2573
      9 N2         -4.6087    0.7240    0.2242 N.pl3     1 <0>        -0.3643
     10 N3         -3.3399    1.3531    0.3158 N.2       1 <0>        -0.2543
     11 C7         -5.9351    1.0790    0.1888 C.2       1 <0>         0.4778
     12 C8         -6.8895    0.1461    0.0921 C.2       1 <0>        -0.4850
     13 S1         -5.9271   -1.3580    0.0449 S.3       1 <0>         0.0926
     14 C9         -8.3856    0.3191    0.0379 C.3       1 <0>         0.2460
     15 H1         -8.6614    1.3353    0.3562 H         1 <0>         0.1470
     16 C10        -8.8700    0.0654   -1.3664 C.ar      1 <0>        -0.1031
     17 C11        -8.9329   -1.2271   -1.8527 C.ar      1 <0>        -0.1065
     18 C12        -9.3824   -1.4609   -3.1386 C.ar      1 <0>        -0.0987
     19 C13        -9.7588   -0.4001   -3.9430 C.ar      1 <0>        -0.0251
     20 C14        -9.6903    0.8937   -3.4578 C.ar      1 <0>        -0.1005
     21 C15        -9.2460    1.1258   -2.1698 C.ar      1 <0>        -0.0733
     22 Cl1       -10.3174   -0.6924   -5.5605 Cl        1 <0>        -0.0580
     23 N4         -9.0225   -0.6350    0.9555 N.4       1 <0>        -0.3979
     24 C16        -8.4763   -0.5049    2.3123 C.3       1 <0>         0.0035
     25 C17        -9.0543   -1.6062    3.2041 C.3       1 <0>        -0.1382
     26 C18       -10.5803   -1.4835    3.2340 C.3       1 <0>         0.1059
     27 C19       -11.1199   -1.5738    1.8039 C.3       1 <0>        -0.1752
     28 C20       -10.4820   -0.4735    0.9528 C.3       1 <0>        -0.0043
     29 O2        -11.1292   -2.5437    4.0194 O.3       1 <0>        -0.5920
     30 O3         -6.2821    2.3929    0.2518 O.3       1 <0>        -0.6390
     31 H2          2.2073   -0.1540    0.4542 H         1 <0>         0.1579
     32 H3         -0.1746   -1.4056    0.2894 H         1 <0>         0.1615
     33 H4          1.7236    2.4166    0.5894 H         1 <0>         0.2115
     34 H5         -8.6348   -2.0548   -1.2261 H         1 <0>         0.1245
     35 H6         -9.4357   -2.4711   -3.5169 H         1 <0>         0.1411
     36 H7         -9.9837    1.7222   -4.0854 H         1 <0>         0.1413
     37 H8         -9.1921    2.1357   -1.7910 H         1 <0>         0.1425
     38 H9         -7.3809   -0.5993    2.2772 H         1 <0>         0.1453
     39 H10        -8.7465    0.4789    2.7236 H         1 <0>         0.1256
     40 H11        -8.7716   -2.5901    2.8015 H         1 <0>         0.0941
     41 H12        -8.6560   -1.4991    4.2238 H         1 <0>         0.1143
     42 H13       -10.8999   -0.5534    3.7268 H         1 <0>         0.0682
     43 H14       -10.8718   -2.5580    1.3799 H         1 <0>         0.0939
     44 H15       -12.2122   -1.4442    1.8152 H         1 <0>         0.1086
     45 H16       -10.7428    0.5101    1.3705 H         1 <0>         0.1275
     46 H17       -10.8569   -0.5448   -0.0789 H         1 <0>         0.1309
     47 H18       -12.2180   -2.6203    4.1558 H         1 <0>         0.4190
     48 H19        -8.7971   -1.6511    0.5995 H         1 <0>         0.4238
@<TRIPOS>BOND
     1    1    5 2
     2    1    2 1
     3    1   31 1
     4    2    3 2
     5    2   32 1
     6    3    4 1
     7    3    6 1
     8    4    5 1
     9    5   33 1
    10    6   10 2
    11    6    7 1
    12    7    8 2
    13    8   13 1
    14    8    9 1
    15    9   10 1
    16    9   11 1
    17   11   12 2
    18   11   30 1
    19   12   13 1
    20   12   14 1
    21   14   15 1
    22   14   16 1
    23   14   23 1
    24   16   21 ar
    25   16   17 ar
    26   17   18 ar
    27   17   34 1
    28   18   19 ar
    29   18   35 1
    30   19   20 ar
    31   19   22 1
    32   20   21 ar
    33   20   36 1
    34   21   37 1
    35   23   28 1
    36   23   24 1
    37   23   48 1
    38   24   25 1
    39   24   38 1
    40   24   39 1
    41   25   26 1
    42   25   40 1
    43   25   41 1
    44   26   27 1
    45   26   29 1
    46   26   42 1
    47   27   28 1
    48   27   43 1
    49   27   44 1
    50   28   45 1
    51   28   46 1
    52   29   47 1
@<TRIPOS>MOLECULE
ZINC35338802
   49    52     0     0     0
SMALL
USER_CHARGES

@<TRIPOS>ATOM
      1 C1         -0.0126    1.3746   -0.1789 C.ar      1 <0>        -0.1172
      2 C2          1.1745    2.0810   -0.1818 C.ar      1 <0>        -0.0644
      3 C3          2.3797    1.4110   -0.0182 C.ar      1 <0>         0.1252
      4 C4          2.3873    0.0321    0.1480 C.ar      1 <0>        -0.0430
      5 C5          1.1971   -0.6682    0.1500 C.ar      1 <0>        -0.6170
      6 C6         -0.0016    0.0020   -0.0133 C.ar      1 <0>        -0.0301
      7 S1          1.2057   -2.4176    0.3602 S.o2      1 <0>         2.6266
      8 O1          0.0027   -2.9023   -0.2206 O.2       1 <0>        -0.9819
      9 O2          2.4876   -2.8701   -0.0535 O.2       1 <0>        -0.9774
     10 N1          1.1003   -2.7160    1.9856 N.2       1 <0>        -0.9836
     11 C7          1.0869   -3.9341    2.4199 C.2       1 <0>         0.5354
     12 N2          1.1602   -5.0539    1.6348 N.pl3     1 <0>        -0.7562
     13 C8          1.6034   -6.1926    2.4553 C.3       1 <0>         0.0986
     14 C9          1.0628   -5.8835    3.8692 C.3       1 <0>        -0.1388
     15 C10         0.9944   -4.3415    3.8739 C.3       1 <0>        -0.0956
     16 N3          3.5839    2.1235   -0.0212 N.am      1 <0>        -0.6720
     17 C11         3.6280    3.3746    0.4780 C.2       1 <0>         0.5253
     18 O3          2.6493    3.8477    1.0159 O.2       1 <0>        -0.5060
     19 C12         4.8932    4.1858    0.3677 C.3       1 <0>        -0.1463
     20 H1          5.1567    4.3145   -0.6821 H         1 <0>         0.1215
     21 C13         4.6866    5.5553    1.0194 C.3       1 <0>        -0.0599
     22 C14         6.0160    6.2490    1.1756 C.ar      1 <0>        -0.1451
     23 C15         6.0324    7.6178    1.3869 C.ar      1 <0>        -0.0722
     24 C16         7.2328    8.2858    1.5382 C.ar      1 <0>        -0.0627
     25 C17         8.4252    7.5859    1.4793 C.ar      1 <0>        -0.0768
     26 C18         8.4139    6.2227    1.2675 C.ar      1 <0>        -0.1309
     27 C19         7.2071    5.5477    1.1125 C.ar      1 <0>         0.1303
     28 O4          7.2378    4.2069    0.8952 O.3       1 <0>        -0.3029
     29 C20         6.0329    3.4687    1.1027 C.3       1 <0>         0.0705
     30 Cl1         7.2447   10.0015    1.8026 Cl        1 <0>        -0.0658
     31 H2         -0.9506    1.8957   -0.3016 H         1 <0>         0.1409
     32 H3          1.1653    3.1531   -0.3116 H         1 <0>         0.1443
     33 H4          3.3230   -0.4920    0.2751 H         1 <0>         0.1437
     34 H5         -0.9311   -0.5479   -0.0114 H         1 <0>         0.1432
     35 H6          1.1756   -7.1220    2.0792 H         1 <0>         0.0942
     36 H7          2.6917   -6.2515    2.4684 H         1 <0>         0.0836
     37 H8          0.0732   -6.3186    4.0084 H         1 <0>         0.0900
     38 H9          1.7538   -6.2392    4.6335 H         1 <0>         0.0995
     39 H10         1.8303   -3.9260    4.4367 H         1 <0>         0.1162
     40 H11         0.0481   -4.0087    4.3002 H         1 <0>         0.1180
     41 H12         4.3871    1.7169   -0.3825 H         1 <0>         0.4150
     42 H13         4.0330    6.1609    0.3915 H         1 <0>         0.0947
     43 H14         4.2280    5.4250    1.9997 H         1 <0>         0.0963
     44 H15         5.1028    8.1657    1.4331 H         1 <0>         0.1383
     45 H16         9.3639    8.1065    1.5987 H         1 <0>         0.1421
     46 H17         9.3451    5.6775    1.2215 H         1 <0>         0.1428
     47 H18         5.8104    3.4225    2.1688 H         1 <0>         0.0780
     48 H19         6.1472    2.4595    0.7070 H         1 <0>         0.1146
     49 H20         0.9531   -5.0906    0.6879 H         1 <0>         0.4168
@<TRIPOS>BOND
     1    1    6 ar
     2    1    2 ar
     3    1   31 1
     4    2    3 ar
     5    2   32 1
     6    3    4 ar
     7    3   16 1
     8    4    5 ar
     9    4   33 1
    10    5    6 ar
    11    5    7 1
    12    6   34 1
    13    7    8 2
    14    7    9 2
    15    7   10 1
    16   10   11 2
    17   11   15 1
    18   11   12 1
    19   12   13 1
    20   12   49 1
    21   13   14 1
    22   13   35 1
    23   13   36 1
    24   14   15 1
    25   14   37 1
    26   14   38 1
    27   15   39 1
    28   15   40 1
    29   16   17 am
    30   16   41 1
    31   17   18 2
    32   17   19 1
    33   19   20 1
    34   19   29 1
    35   19   21 1
    36   21   22 1
    37   21   42 1
    38   21   43 1
    39   22   27 ar
    40   22   23 ar
    41   23   24 ar
    42   23   44 1
    43   24   25 ar
    44   24   30 1
    45   25   26 ar
    46   25   45 1
    47   26   27 ar
    48   26   46 1
    49   27   28 1
    50   28   29 1
    51   29   47 1
    52   29   48 1
@<TRIPOS>MOLECULE
ZINC47136010
   55    59     0     0     0
SMALL
USER_CHARGES

@<TRIPOS>ATOM
      1 C1         -0.0187    1.5258    0.0104 C.3       1 <0>        -0.1485
      2 C2          0.0021   -0.0041    0.0020 C.3       1 <0>        -0.0849
      3 H1         -1.0199   -0.3831    0.0097 H         1 <0>         0.0762
      4 C3          0.7237   -0.5004   -1.2542 C.3       1 <0>        -0.1147
      5 C4          0.5374   -2.0124   -1.3984 C.3       1 <0>        -0.0605
      6 C5          0.9358   -2.6800   -0.0904 C.2       1 <0>        -0.0411
      7 C6          1.0197   -1.9774    1.0587 C.2       1 <0>        -0.2003
      8 S1          1.5084   -3.1636    2.2765 S.3       1 <0>         0.1749
      9 C7          1.6006   -4.5387    1.3173 C.2       1 <0>         0.1111
     10 C8          1.2552   -4.0911    0.0503 C.2       1 <0>        -0.2740
     11 C9          1.2146   -5.0012   -1.0963 C.2       1 <0>         0.5908
     12 O1          2.2110   -5.1703   -1.7748 O.2       1 <0>        -0.5275
     13 N1          0.0739   -5.6516   -1.4003 N.am      1 <0>        -0.7127
     14 C10         0.0333   -6.5621   -2.5473 C.3       1 <0>         0.1401
     15 H2          0.9964   -7.0608   -2.6557 H         1 <0>         0.1134
     16 C11        -0.2892   -5.7719   -3.8264 C.3       1 <0>        -0.1401
     17 C12        -0.6488   -6.7475   -4.9729 C.3       1 <0>        -0.5733
     18 S2         -1.3364   -8.1951   -4.0706 S.o2      1 <0>         2.3779
     19 O2         -2.7304   -8.2830   -4.3315 O.2       1 <0>        -0.9303
     20 O3         -0.5078   -9.3246   -4.3091 O.2       1 <0>        -0.9284
     21 C13        -1.0862   -7.6214   -2.3378 C.3       1 <0>        -0.5967
     22 N2          1.9425   -5.8215    1.7014 N.pl3     1 <0>        -0.6781
     23 C14         2.2795   -6.1022    3.0992 C.3       1 <0>         0.3527
     24 H3          2.5429   -5.1771    3.6120 H         1 <0>         0.1424
     25 C15         3.4293   -7.0748    3.1672 C.ar      1 <0>        -0.1230
     26 C16         4.7292   -7.0382    2.7199 C.ar      1 <0>        -0.0734
     27 C17         5.5666   -8.1191    2.9406 C.ar      1 <0>        -0.0788
     28 C18         5.1004   -9.2370    3.6100 C.ar      1 <0>        -0.1098
     29 C19         3.7981   -9.2845    4.0631 C.ar      1 <0>        -0.0345
     30 C20         2.9488   -8.1993    3.8444 C.ar      1 <0>        -0.1834
     31 C21         1.5393   -7.9425    4.1922 C.2       1 <0>         0.5240
     32 O4          0.8166   -8.7160    4.7880 O.2       1 <0>        -0.4338
     33 O5          1.1716   -6.7261    3.7538 O.3       1 <0>        -0.3233
     34 C22         0.7497   -0.5152    1.2424 C.3       1 <0>        -0.0285
     35 H4          1.0039    1.9031    0.0027 H         1 <0>         0.0574
     36 H5         -0.5459    1.8868   -0.8726 H         1 <0>         0.0587
     37 H6         -0.5289    1.8773    0.9072 H         1 <0>         0.0581
     38 H7          0.3116    0.0005   -2.1302 H         1 <0>         0.0712
     39 H8          1.7867   -0.2724   -1.1750 H         1 <0>         0.0681
     40 H9         -0.5072   -2.2328   -1.6181 H         1 <0>         0.0778
     41 H10         1.1692   -2.3833   -2.2055 H         1 <0>         0.0764
     42 H11        -0.7201   -5.5169   -0.8596 H         1 <0>         0.4081
     43 H12        -1.1329   -5.1077   -3.6385 H         1 <0>         0.0911
     44 H13         0.5792   -5.1794   -4.1144 H         1 <0>         0.1028
     45 H14        -1.3995   -6.3103   -5.6312 H         1 <0>         0.1459
     46 H15         0.2420   -7.0294   -5.5342 H         1 <0>         0.1432
     47 H16        -0.7440   -8.4355   -1.6988 H         1 <0>         0.1473
     48 H17        -1.9919   -7.1642   -1.9392 H         1 <0>         0.1464
     49 H18         1.9593   -6.5359    1.0456 H         1 <0>         0.4134
     50 H19         5.0968   -6.1674    2.1974 H         1 <0>         0.1394
     51 H20         6.5872   -8.0895    2.5886 H         1 <0>         0.1432
     52 H21         5.7590  -10.0763    3.7782 H         1 <0>         0.1433
     53 H22         3.4374  -10.1585    4.5852 H         1 <0>         0.1420
     54 H23         1.6929    0.0205    1.3495 H         1 <0>         0.0819
     55 H24         0.1364   -0.3615    2.1302 H         1 <0>         0.0806
@<TRIPOS>BOND
     1    1    2 1
     2    1   35 1
     3    1   36 1
     4    1   37 1
     5    2    3 1
     6    2   34 1
     7    2    4 1
     8    4    5 1
     9    4   38 1
    10    4   39 1
    11    5    6 1
    12    5   40 1
    13    5   41 1
    14    6   10 1
    15    6    7 2
    16    7    8 1
    17    7   34 1
    18    8    9 1
    19    9   10 2
    20    9   22 1
    21   10   11 1
    22   11   12 2
    23   11   13 am
    24   13   14 1
    25   13   42 1
    26   14   15 1
    27   14   21 1
    28   14   16 1
    29   16   17 1
    30   16   43 1
    31   16   44 1
    32   17   18 1
    33   17   45 1
    34   17   46 1
    35   18   19 2
    36   18   20 2
    37   18   21 1
    38   21   47 1
    39   21   48 1
    40   22   23 1
    41   22   49 1
    42   23   24 1
    43   23   33 1
    44   23   25 1
    45   25   30 ar
    46   25   26 ar
    47   26   27 ar
    48   26   50 1
    49   27   28 ar
    50   27   51 1
    51   28   29 ar
    52   28   52 1
    53   29   30 ar
    54   29   53 1
    55   30   31 1
    56   31   32 2
    57   31   33 1
    58   34   54 1
    59   34   55 1
@<TRIPOS>MOLECULE
ZINC64742813
   53    56     0     0     0
SMALL
USER_CHARGES

@<TRIPOS>ATOM
      1 C1          0.6286    1.5115   -0.1900 C.3       1 <0>        -0.1146
      2 C2          0.6365    0.0045   -0.1903 C.ar      1 <0>        -0.0927
      3 C3          0.6125   -0.6855   -1.3886 C.ar      1 <0>        -0.1097
      4 C4          0.6196   -2.0663   -1.3923 C.ar      1 <0>        -0.1057
      5 C5          0.6514   -2.7623   -0.1907 C.ar      1 <0>         0.1332
      6 C6          0.6759   -2.0667    1.0107 C.ar      1 <0>        -0.1056
      7 C7          0.6735   -0.6853    1.0074 C.ar      1 <0>        -0.1066
      8 C8          0.7105   -2.8178    2.3167 C.3       1 <0>        -0.1154
      9 N1          0.6583   -4.1616   -0.1910 N.am      1 <0>        -0.6637
     10 C9         -0.0238   -4.8386   -1.1358 C.2       1 <0>         0.5312
     11 O1         -0.5782   -4.2374   -2.0315 O.2       1 <0>        -0.4888
     12 C10        -0.0975   -6.3428   -1.0795 C.3       1 <0>        -0.0862
     13 H1          0.7523   -6.7314   -0.5184 H         1 <0>         0.1107
     14 C11        -1.4023   -6.7704   -0.4017 C.3       1 <0>        -0.1307
     15 C12        -1.6540   -8.2363   -0.5977 C.2       1 <0>         0.5329
     16 O2         -2.4223   -8.7914    0.1581 O.2       1 <0>        -0.4794
     17 N2         -1.0769   -8.9662   -1.5624 N.am      1 <0>        -0.6268
     18 C13        -0.1439   -8.4162   -2.3954 C.2       1 <0>         0.4979
     19 N3          0.6729   -9.1718   -3.0711 N.2       1 <0>        -0.5764
     20 C14         1.6714   -8.6657   -3.8059 C.2       1 <0>         0.4171
     21 N4          1.9191   -7.3645   -3.8583 N.2       1 <0>        -0.6284
     22 C15         1.1428   -6.4828   -3.2446 C.2       1 <0>         0.5109
     23 O3          1.4311   -5.3025   -3.2871 O.2       1 <0>        -0.4314
     24 C16        -0.0823   -6.9137   -2.5003 C.3       1 <0>        -0.1736
     25 H2         -0.9590   -6.5562   -3.0404 H         1 <0>         0.1661
     26 S1          2.6895   -9.7651   -4.7329 S.3       1 <0>         0.0791
     27 C17         3.8805   -8.6719   -5.5556 C.3       1 <0>        -0.0780
     28 C18         4.8239   -9.4963   -6.3932 C.ar      1 <0>        -0.0571
     29 C19         5.9943   -9.9820   -5.8402 C.ar      1 <0>        -0.1080
     30 C20         6.8605  -10.7383   -6.6072 C.ar      1 <0>        -0.0879
     31 C21         6.5576  -11.0095   -7.9282 C.ar      1 <0>        -0.1422
     32 C22         5.3860  -10.5237   -8.4830 C.ar      1 <0>         0.1014
     33 C23         4.5160   -9.7712   -7.7118 C.ar      1 <0>        -0.1336
     34 F1          5.0891  -10.7878   -9.7742 F         1 <0>        -0.1354
     35 H3          1.6539    1.8802   -0.2186 H         1 <0>         0.0704
     36 H4          0.0882    1.8721   -1.0653 H         1 <0>         0.0666
     37 H5          0.1378    1.8721    0.7140 H         1 <0>         0.0658
     38 H6          0.5877   -0.1437   -2.3226 H         1 <0>         0.1248
     39 H7          0.6001   -2.6046   -2.3284 H         1 <0>         0.1450
     40 H8          0.6967   -0.1436    1.9414 H         1 <0>         0.1255
     41 H9          1.7462   -2.9935    2.6075 H         1 <0>         0.0713
     42 H10         0.2115   -2.2300    3.0872 H         1 <0>         0.0725
     43 H11         0.1988   -3.7731    2.2000 H         1 <0>         0.0622
     44 H12         1.1540   -4.6442    0.4889 H         1 <0>         0.4089
     45 H13        -1.3379   -6.5577    0.6654 H         1 <0>         0.1332
     46 H14        -2.2301   -6.2046   -0.8293 H         1 <0>         0.1325
     47 H15        -1.3247   -9.8977   -1.6704 H         1 <0>         0.4311
     48 H16         3.3468   -7.9687   -6.1950 H         1 <0>         0.1151
     49 H17         4.4476   -8.1217   -4.8047 H         1 <0>         0.1177
     50 H18         6.2322   -9.7700   -4.8082 H         1 <0>         0.1356
     51 H19         7.7745  -11.1172   -6.1742 H         1 <0>         0.1391
     52 H20         7.2349  -11.5999   -8.5275 H         1 <0>         0.1396
     53 H21         3.5996   -9.3954   -8.1423 H         1 <0>         0.1405
@<TRIPOS>BOND
     1    1    2 1
     2    1   35 1
     3    1   36 1
     4    1   37 1
     5    2    7 ar
     6    2    3 ar
     7    3    4 ar
     8    3   38 1
     9    4    5 ar
    10    4   39 1
    11    5    6 ar
    12    5    9 1
    13    6    7 ar
    14    6    8 1
    15    7   40 1
    16    8   41 1
    17    8   42 1
    18    8   43 1
    19    9   10 am
    20    9   44 1
    21   10   11 2
    22   10   12 1
    23   12   13 1
    24   12   24 1
    25   12   14 1
    26   14   15 1
    27   14   45 1
    28   14   46 1
    29   15   16 2
    30   15   17 am
    31   17   18 1
    32   17   47 1
    33   18   24 1
    34   18   19 2
    35   19   20 1
    36   20   21 2
    37   20   26 1
    38   21   22 1
    39   22   23 2
    40   22   24 1
    41   24   25 1
    42   26   27 1
    43   27   28 1
    44   27   48 1
    45   27   49 1
    46   28   33 ar
    47   28   29 ar
    48   29   30 ar
    49   29   50 1
    50   30   31 ar
    51   30   51 1
    52   31   32 ar
    53   31   52 1
    54   32   33 ar
    55   32   34 1
    56   33   53 1
@<TRIPOS>MOLECULE
ZINC09296361
   48    51     0     0     0
SMALL
USER_CHARGES
amino-(3-bromo-4,5-diethoxy-phenyl)-BLAHcarbonitrile
@<TRIPOS>ATOM
      1 C1          6.1294    7.1255    2.3097 C.3       1 <0>        -0.1522
      2 C2          4.9239    6.2778    1.8987 C.3       1 <0>         0.0503
      3 O1          4.1314    5.9861    3.0515 O.3       1 <0>        -0.2995
      4 C3          3.0138    5.2355    2.8586 C.ar      1 <0>         0.1255
      5 C4          2.6876    4.7897    1.5876 C.ar      1 <0>        -0.1759
      6 C5          1.5514    4.0268    1.3928 C.ar      1 <0>        -0.0379
      7 C6          0.7354    3.7105    2.4631 C.ar      1 <0>        -0.0986
      8 C7          1.0581    4.1473    3.7352 C.ar      1 <0>        -0.0724
      9 C8          2.1960    4.9132    3.9369 C.ar      1 <0>         0.0922
     10 O2          2.5119    5.3489    5.1861 O.3       1 <0>        -0.3143
     11 C9          1.9842    6.6158    5.5840 C.3       1 <0>         0.0621
     12 C10         2.4432    6.9349    7.0082 C.3       1 <0>        -0.1491
     13 Br1        -0.0567    3.7066    5.1977 Br        1 <0>        -0.0257
     14 C11         1.1981    3.5439    0.0097 C.3       1 <0>         0.0919
     15 H1          1.9531    3.8888   -0.6969 H         1 <0>         0.1061
     16 C12        -0.1431    4.1024   -0.3861 C.ar      1 <0>        -0.1133
     17 C13        -0.2392    5.4263   -0.7791 C.ar      1 <0>        -0.0587
     18 C14        -1.4633    5.9577   -1.1468 C.ar      1 <0>         0.0281
     19 C15        -2.6028    5.1566   -1.1210 C.ar      1 <0>         0.0690
     20 C16        -2.5051    3.8334   -0.7279 C.ar      1 <0>        -0.1052
     21 C17        -1.2746    3.3037   -0.3583 C.ar      1 <0>         0.1313
     22 O3         -1.1997    2.0042    0.0187 O.3       1 <0>        -0.2371
     23 C18        -0.0165    1.3685    0.0096 C.2       1 <0>         0.4477
     24 C19         1.1585    2.0417    0.0020 C.2       1 <0>        -0.2814
     25 C20         2.3878    1.3074   -0.0143 C.1       1 <0>         0.2713
     26 N1          3.3630    0.7249   -0.0271 N.1       1 <0>        -0.4394
     27 N2          0.0021   -0.0041    0.0020 N.pl3     1 <0>        -0.8264
     28 O4         -3.6715    5.9052   -1.5222 O.3       1 <0>        -0.3003
     29 C21        -3.1098    7.0541   -2.1837 C.3       1 <0>         0.2128
     30 O5         -1.8191    7.2085   -1.5644 O.3       1 <0>        -0.3021
     31 H2          6.7339    7.3479    1.4304 H         1 <0>         0.0804
     32 H3          5.7830    8.0569    2.7576 H         1 <0>         0.0670
     33 H4          6.7303    6.5755    3.0340 H         1 <0>         0.0680
     34 H5          5.2703    5.3464    1.4508 H         1 <0>         0.0644
     35 H6          4.3230    6.8278    1.1744 H         1 <0>         0.0641
     36 H7          3.3210    5.0387    0.7490 H         1 <0>         0.1401
     37 H8         -0.1538    3.1180    2.3062 H         1 <0>         0.1339
     38 H9          2.3437    7.3887    4.9047 H         1 <0>         0.0536
     39 H10         0.8952    6.5820    5.5522 H         1 <0>         0.0539
     40 H11         2.0837    6.1620    7.6876 H         1 <0>         0.0658
     41 H12         3.5322    6.9687    7.0400 H         1 <0>         0.0655
     42 H13         2.0407    7.9013    7.3118 H         1 <0>         0.0752
     43 H14         0.6444    6.0469   -0.7991 H         1 <0>         0.1472
     44 H15        -3.3875    3.2110   -0.7074 H         1 <0>         0.1538
     45 H16         0.8486   -0.4776   -0.0086 H         1 <0>         0.4272
     46 H17        -0.8313   -0.5005    0.0073 H         1 <0>         0.4134
     47 H18        -3.0020    6.8664   -3.2519 H         1 <0>         0.0902
     48 H19        -3.7277    7.9354   -2.0112 H         1 <0>         0.1373
@<TRIPOS>BOND
     1    1    2 1
     2    1   31 1
     3    1   32 1
     4    1   33 1
     5    2    3 1
     6    2   34 1
     7    2   35 1
     8    3    4 1
     9    4    9 ar
    10    4    5 ar
    11    5    6 ar
    12    5   36 1
    13    6    7 ar
    14    6   14 1
    15    7    8 ar
    16    7   37 1
    17    8    9 ar
    18    8   13 1
    19    9   10 1
    20   10   11 1
    21   11   12 1
    22   11   38 1
    23   11   39 1
    24   12   40 1
    25   12   41 1
    26   12   42 1
    27   14   15 1
    28   14   24 1
    29   14   16 1
    30   16   21 ar
    31   16   17 ar
    32   17   18 ar
    33   17   43 1
    34   18   30 1
    35   18   19 ar
    36   19   20 ar
    37   19   28 1
    38   20   21 ar
    39   20   44 1
    40   21   22 1
    41   22   23 1
    42   23   24 2
    43   23   27 1
    44   24   25 1
    45   25   26 3
    46   27   45 1
    47   27   46 1
    48   28   29 1
    49   29   30 1
    50   29   47 1
    51   29   48 1
@<TRIPOS>MOLECULE
ZINC15543976
   54    57     0     0     0
SMALL
USER_CHARGES
N-[[5-(4-bromophenyl)-2-furyl]methyl]-2-[(5S,10S)-10-methyl-2,4-dioxo-1,3-diazaspiro[4.5]decan-3-yl]acetamide
@<TRIPOS>ATOM
      1 C1         -0.6359    2.2854   -8.0173 C.3       1 <0>        -0.1562
      2 C2          0.8272    1.8436   -7.9467 C.3       1 <0>        -0.0834
      3 H1          1.0476    1.1837   -8.7858 H         1 <0>         0.0936
      4 C3          1.7351    3.0743   -8.0138 C.3       1 <0>        -0.1235
      5 C4          3.1974    2.6333   -7.9224 C.3       1 <0>        -0.1183
      6 C5          3.4312    1.9107   -6.5941 C.3       1 <0>        -0.1274
      7 C6          2.5302    0.6753   -6.5214 C.3       1 <0>        -0.1130
      8 C7          1.0704    1.0999   -6.6382 C.3       1 <0>         0.1307
      9 C8          0.6718    1.9630   -5.4633 C.2       1 <0>         0.5425
     10 O1          1.1387    3.0370   -5.1498 O.2       1 <0>        -0.4536
     11 N1         -0.3113    1.2852   -4.8353 N.am      1 <0>        -0.5638
     12 C9         -0.5864    0.1301   -5.4534 C.2       1 <0>         0.7103
     13 O2         -1.4372   -0.6520   -5.0772 O.2       1 <0>        -0.5395
     14 N2          0.1859   -0.0682   -6.5388 N.am      1 <0>        -0.7164
     15 C10        -0.9970    1.7576   -3.6299 C.3       1 <0>         0.0996
     16 C11        -0.2681    1.2584   -2.4090 C.2       1 <0>         0.5055
     17 O3          0.7262    0.5752   -2.5335 O.2       1 <0>        -0.5221
     18 N3         -0.7213    1.5711   -1.1789 N.am      1 <0>        -0.7247
     19 C12        -0.0127    1.0858    0.0080 C.3       1 <0>         0.2047
     20 C13        -0.7181    1.5718    1.2479 C.2       1 <0>        -0.0308
     21 C14        -1.7055    0.9229    1.8952 C.2       1 <0>        -0.1741
     22 C15        -2.0751    1.7243    2.9941 C.2       1 <0>        -0.1851
     23 C16        -1.2844    2.8296    2.9561 C.2       1 <0>         0.0355
     24 O4         -0.4628    2.7211    1.8944 O.3       1 <0>        -0.1617
     25 C17        -1.3171    3.9527    3.9162 C.ar      1 <0>        -0.0039
     26 C18        -2.2229    3.9406    4.9783 C.ar      1 <0>        -0.0905
     27 C19        -2.2445    4.9891    5.8744 C.ar      1 <0>        -0.0855
     28 C20        -1.3781    6.0572    5.7155 C.ar      1 <0>        -0.0851
     29 C21        -0.4814    6.0777    4.6609 C.ar      1 <0>        -0.0862
     30 C22        -0.4461    5.0325    3.7615 C.ar      1 <0>        -0.0952
     31 Br1        -1.4203    7.4945    6.9437 Br        1 <0>        -0.0420
     32 H2         -0.8573    2.9446   -7.1779 H         1 <0>         0.0519
     33 H3         -0.8102    2.8172   -8.9527 H         1 <0>         0.0704
     34 H4         -1.2827    1.4092   -7.9716 H         1 <0>         0.0607
     35 H5          1.5710    3.5961   -8.9566 H         1 <0>         0.0731
     36 H6          1.5042    3.7421   -7.1839 H         1 <0>         0.0811
     37 H7          3.4257    1.9591   -8.7479 H         1 <0>         0.0637
     38 H8          3.8448    3.5084   -7.9787 H         1 <0>         0.0692
     39 H9          4.4749    1.6039   -6.5260 H         1 <0>         0.0729
     40 H10         3.1948    2.5821   -5.7686 H         1 <0>         0.0798
     41 H11         2.6857    0.1682   -5.5692 H         1 <0>         0.0769
     42 H12         2.7774   -0.0029   -7.3381 H         1 <0>         0.0861
     43 H13         0.1625   -0.8317   -7.1367 H         1 <0>         0.4411
     44 H14        -2.0196    1.3803   -3.6222 H         1 <0>         0.1308
     45 H15        -1.0118    2.8475   -3.6239 H         1 <0>         0.1282
     46 H16        -1.5165    2.1175   -1.0793 H         1 <0>         0.4070
     47 H17         0.0021   -0.0041    0.0020 H         1 <0>         0.1050
     48 H18         1.0099    1.4631    0.0003 H         1 <0>         0.0892
     49 H19        -2.1330   -0.0310    1.6235 H         1 <0>         0.1573
     50 H20        -2.8386    1.5030    3.7252 H         1 <0>         0.1565
     51 H21        -2.9025    3.1102    5.1005 H         1 <0>         0.1395
     52 H22        -2.9418    4.9788    6.6991 H         1 <0>         0.1414
     53 H23         0.1917    6.9139    4.5421 H         1 <0>         0.1395
     54 H24         0.2537    5.0498    2.9390 H         1 <0>         0.1383
@<TRIPOS>BOND
     1    1    2 1
     2    1   32 1
     3    1   33 1
     4    1   34 1
     5    2    3 1
     6    2    8 1
     7    2    4 1
     8    4    5 1
     9    4   35 1
    10    4   36 1
    11    5    6 1
    12    5   37 1
    13    5   38 1
    14    6    7 1
    15    6   39 1
    16    6   40 1
    17    7    8 1
    18    7   41 1
    19    7   42 1
    20    8   14 1
    21    8    9 1
    22    9   10 2
    23    9   11 am
    24   11   12 am
    25   11   15 1
    26   12   13 2
    27   12   14 am
    28   14   43 1
    29   15   16 1
    30   15   44 1
    31   15   45 1
    32   16   17 2
    33   16   18 am
    34   18   19 1
    35   18   46 1
    36   19   20 1
    37   19   47 1
    38   19   48 1
    39   20   24 1
    40   20   21 2
    41   21   22 1
    42   21   49 1
    43   22   23 2
    44   22   50 1
    45   23   24 1
    46   23   25 1
    47   25   30 ar
    48   25   26 ar
    49   26   27 ar
    50   26   51 1
    51   27   28 ar
    52   27   52 1
    53   28   29 ar
    54   28   31 1
    55   29   30 ar
    56   29   53 1
    57   30   54 1
@<TRIPOS>MOLECULE
ZINC34791854
   57    60     0     0     0
SMALL
USER_CHARGES

@<TRIPOS>ATOM
      1 C1          2.0440   -0.7158    0.1996 C.3       1 <0>        -0.1691
      2 C2          1.0024   -1.7442   -0.2459 C.3       1 <0>        -0.1262
      3 C3          1.2188   -3.0526    0.5171 C.3       1 <0>        -0.1507
      4 C4         -0.4006   -1.2089    0.0473 C.3       1 <0>         0.3549
      5 C5         -1.4341   -2.3090   -0.2173 C.3       1 <0>        -0.0897
      6 H1         -1.2852   -3.1280    0.4864 H         1 <0>         0.1508
      7 C6         -2.8352   -1.7174   -0.0294 C.3       1 <0>         0.1818
      8 H2         -2.9680   -1.4186    1.0104 H         1 <0>         0.1249
      9 N1         -2.9831   -0.5479   -0.8973 N.pl3     1 <0>        -0.6720
     10 C7         -1.9270    0.2050   -1.2394 C.2       1 <0>         0.5938
     11 S1         -2.1798    1.5671   -2.2453 S.2       1 <0>        -0.6188
     12 N2         -0.6807   -0.0670   -0.8247 N.pl3     1 <0>        -0.5193
     13 C8          0.3742    0.7587   -1.2341 C.ar      1 <0>         0.1574
     14 C9          1.0416    0.4953   -2.4229 C.ar      1 <0>        -0.0805
     15 C10         2.0828    1.3085   -2.8262 C.ar      1 <0>        -0.1056
     16 C11         2.4645    2.3903   -2.0465 C.ar      1 <0>         0.0643
     17 C12         1.7967    2.6581   -0.8573 C.ar      1 <0>         0.0618
     18 C13         0.7492    1.8438   -0.4546 C.ar      1 <0>        -0.0991
     19 O1          2.1519    3.7196   -0.0828 O.3       1 <0>        -0.3037
     20 C14         3.4393    4.2949   -0.3301 C.3       1 <0>         0.0208
     21 C15         3.6053    4.4678   -1.8460 C.3       1 <0>         0.0188
     22 O2          3.4960    3.1786   -2.4587 O.3       1 <0>        -0.3044
     23 C16        -3.8708   -2.7501   -0.3929 C.ar      1 <0>        -0.0880
     24 C17        -4.1792   -2.9821   -1.7206 C.ar      1 <0>        -0.1101
     25 C18        -5.1288   -3.9290   -2.0555 C.ar      1 <0>        -0.0806
     26 C19        -5.7716   -4.6448   -1.0631 C.ar      1 <0>        -0.1370
     27 C20        -5.4637   -4.4135    0.2666 C.ar      1 <0>         0.1059
     28 C21        -4.5077   -3.4689    0.6006 C.ar      1 <0>        -0.1268
     29 F1         -6.0917   -5.1123    1.2374 F         1 <0>        -0.1333
     30 C22        -1.2808   -2.8189   -1.6271 C.2       1 <0>         0.4691
     31 O3         -0.9096   -2.0731   -2.5022 O.2       1 <0>        -0.4766
     32 O4         -1.5566   -4.1016   -1.9106 O.3       1 <0>        -0.3376
     33 C23        -1.3892   -4.5165   -3.2677 C.3       1 <0>         0.0323
     34 O5         -0.4788   -0.7970    1.4134 O.3       1 <0>        -0.5464
     35 H3          3.0022   -1.2121    0.3527 H         1 <0>         0.0701
     36 H4          2.1501    0.0501   -0.5687 H         1 <0>         0.0797
     37 H5          1.7216   -0.2526    1.1322 H         1 <0>         0.0569
     38 H6          1.1057   -1.9260   -1.3156 H         1 <0>         0.0962
     39 H7          1.1155   -2.8708    1.5868 H         1 <0>         0.0718
     40 H8          0.4767   -3.7852    0.1997 H         1 <0>         0.0569
     41 H9          2.2183   -3.4339    0.3082 H         1 <0>         0.0707
     42 H10        -3.8627   -0.3125   -1.2315 H         1 <0>         0.4359
     43 H11         0.7466   -0.3461   -3.0323 H         1 <0>         0.1418
     44 H12         2.6011    1.1012   -3.7507 H         1 <0>         0.1416
     45 H13         0.2278    2.0516    0.4681 H         1 <0>         0.1341
     46 H14         3.5084    5.2659    0.1603 H         1 <0>         0.1243
     47 H15         4.2170    3.6335    0.0517 H         1 <0>         0.0788
     48 H16         2.8237    5.1241   -2.2289 H         1 <0>         0.0810
     49 H17         4.5841    4.8959   -2.0622 H         1 <0>         0.1244
     50 H18        -3.6779   -2.4227   -2.4966 H         1 <0>         0.1251
     51 H19        -5.3689   -4.1093   -3.0929 H         1 <0>         0.1381
     52 H20        -6.5141   -5.3842   -1.3250 H         1 <0>         0.1412
     53 H21        -4.2635   -3.2907    1.6374 H         1 <0>         0.1432
     54 H22        -1.6450   -5.5721   -3.3591 H         1 <0>         0.1068
     55 H23        -2.0428   -3.9273   -3.9110 H         1 <0>         0.0636
     56 H24        -0.3523   -4.3666   -3.5683 H         1 <0>         0.0643
     57 H25         0.1475   -0.0994    1.6504 H         1 <0>         0.3929
@<TRIPOS>BOND
     1    1    2 1
     2    1   35 1
     3    1   36 1
     4    1   37 1
     5    2    3 1
     6    2    4 1
     7    2   38 1
     8    3   39 1
     9    3   40 1
    10    3   41 1
    11    4   12 1
    12    4    5 1
    13    4   34 1
    14    5    6 1
    15    5    7 1
    16    5   30 1
    17    7    8 1
    18    7    9 1
    19    7   23 1
    20    9   10 1
    21    9   42 1
    22   10   11 2
    23   10   12 1
    24   12   13 1
    25   13   18 ar
    26   13   14 ar
    27   14   15 ar
    28   14   43 1
    29   15   16 ar
    30   15   44 1
    31   16   22 1
    32   16   17 ar
    33   17   18 ar
    34   17   19 1
    35   18   45 1
    36   19   20 1
    37   20   21 1
    38   20   46 1
    39   20   47 1
    40   21   22 1
    41   21   48 1
    42   21   49 1
    43   23   28 ar
    44   23   24 ar
    45   24   25 ar
    46   24   50 1
    47   25   26 ar
    48   25   51 1
    49   26   27 ar
    50   26   52 1
    51   27   28 ar
    52   27   29 1
    53   28   53 1
    54   30   31 2
    55   30   32 1
    56   32   33 1
    57   33   54 1
    58   33   55 1
    59   33   56 1
    60   34   57 1
@<TRIPOS>MOLECULE
ZINC46757757
   64    68     0     0     0
SMALL
USER_CHARGES

@<TRIPOS>ATOM
      1 C1          0.1291    1.0020    0.1687 C.3       1 <0>        -0.1020
      2 C2          0.2986   -0.4881    0.0212 C.ar      1 <0>         0.1560
      3 C3          0.2921   -1.0469   -1.2448 C.ar      1 <0>        -0.1457
      4 C4          0.4492   -2.4269   -1.3848 C.ar      1 <0>        -0.0374
      5 C5          0.6084   -3.1942   -0.2125 C.ar      1 <0>         0.0540
      6 C6          0.6014   -2.5391    1.0337 C.ar      1 <0>         0.2382
      7 N1          0.4547   -1.2274    1.0998 N.ar      1 <0>        -0.4627
      8 N2          0.7703   -3.5303    1.9764 N.pl3     1 <0>        -0.4725
      9 C7          0.8813   -4.7128    1.3122 C.2       1 <0>         0.3022
     10 N3          0.7801   -4.5074    0.0274 N.2       1 <0>        -0.4630
     11 C8          1.0992   -6.0567    1.9663 C.3       1 <0>        -0.0455
     12 C9          0.1307   -6.2112    3.1408 C.3       1 <0>        -0.1244
     13 C10         0.7662   -5.6431    4.4057 C.3       1 <0>        -0.1258
     14 C11         1.6572   -4.4500    4.0647 C.3       1 <0>        -0.1422
     15 C12         0.8129   -3.3432    3.4294 C.3       1 <0>         0.1122
     16 C13         0.4483   -3.0631   -2.7185 C.2       1 <0>         0.5587
     17 O1          0.5866   -4.2667   -2.8178 O.2       1 <0>        -0.4976
     18 N4          0.2940   -2.3090   -3.8248 N.am      1 <0>        -0.7220
     19 C14         0.2931   -2.9398   -5.1470 C.3       1 <0>         0.1879
     20 H1         -0.1805   -3.9194   -5.0819 H         1 <0>         0.0994
     21 C15         1.7338   -3.1013   -5.6360 C.3       1 <0>        -0.1593
     22 C16        -0.4722   -2.0752   -6.1155 C.ar      1 <0>        -0.0721
     23 C17        -0.3337   -0.6998   -6.0720 C.ar      1 <0>        -0.1290
     24 C18        -1.0336    0.0970   -6.9590 C.ar      1 <0>        -0.0926
     25 C19        -1.8739   -0.4788   -7.8920 C.ar      1 <0>        -0.1178
     26 C20        -2.0152   -1.8595   -7.9384 C.ar      1 <0>         0.1527
     27 C21        -1.3065   -2.6575   -7.0492 C.ar      1 <0>        -0.1321
     28 N5         -2.8650   -2.4457   -8.8817 N.am      1 <0>        -0.6708
     29 C22        -3.0166   -1.8800  -10.0957 C.2       1 <0>         0.5613
     30 O2         -2.3434   -0.9164  -10.4055 O.2       1 <0>        -0.5129
     31 C23        -4.0014   -2.4314  -11.0502 C.ar      1 <0>        -0.1404
     32 C24        -4.7800   -3.5343  -10.6954 C.ar      1 <0>        -0.0857
     33 C25        -5.6972   -4.0440  -11.5910 C.ar      1 <0>        -0.1263
     34 C26        -5.8462   -3.4645  -12.8385 C.ar      1 <0>        -0.0889
     35 C27        -5.0773   -2.3714  -13.1967 C.ar      1 <0>        -0.1263
     36 C28        -4.1608   -1.8480  -12.3082 C.ar      1 <0>        -0.0563
     37 H2          1.1067    1.4834    0.1406 H         1 <0>         0.0828
     38 H3         -0.4858    1.3804   -0.6479 H         1 <0>         0.0814
     39 H4         -0.3560    1.2201    1.1201 H         1 <0>         0.0799
     40 H5          0.1663   -0.4213   -2.1162 H         1 <0>         0.1456
     41 H6          0.9187   -6.8486    1.2394 H         1 <0>         0.1076
     42 H7          2.1248   -6.1225    2.3295 H         1 <0>         0.0996
     43 H8         -0.7915   -5.6720    2.9242 H         1 <0>         0.0664
     44 H9         -0.0933   -7.2675    3.2901 H         1 <0>         0.0847
     45 H10        -0.0187   -5.3226    5.0908 H         1 <0>         0.0711
     46 H11         1.3665   -6.4158    4.8859 H         1 <0>         0.0751
     47 H12         2.1236   -4.0735    4.9750 H         1 <0>         0.0902
     48 H13         2.4310   -4.7636    3.3639 H         1 <0>         0.0809
     49 H14         1.2548   -2.3733    3.6577 H         1 <0>         0.0953
     50 H15        -0.1998   -3.3837    3.8305 H         1 <0>         0.0853
     51 H16         0.1836   -1.3486   -3.7455 H         1 <0>         0.3985
     52 H17         1.7331   -3.5707   -6.6198 H         1 <0>         0.0696
     53 H18         2.2074   -2.1218   -5.7011 H         1 <0>         0.0608
     54 H19         2.2873   -3.7267   -4.9355 H         1 <0>         0.0672
     55 H20         0.3224   -0.2471   -5.3432 H         1 <0>         0.1224
     56 H21        -0.9235    1.1707   -6.9222 H         1 <0>         0.1299
     57 H22        -2.4206    0.1441   -8.5844 H         1 <0>         0.1358
     58 H23        -1.4110   -3.7318   -7.0854 H         1 <0>         0.1291
     59 H24        -3.3454   -3.2593   -8.6624 H         1 <0>         0.4112
     60 H25        -4.6644   -3.9878   -9.7220 H         1 <0>         0.1258
     61 H26        -6.3000   -4.8975  -11.3178 H         1 <0>         0.1317
     62 H27        -6.5657   -3.8673  -13.5359 H         1 <0>         0.1301
     63 H28        -5.1983   -1.9239  -14.1721 H         1 <0>         0.1329
     64 H29        -3.5649   -0.9915  -12.5871 H         1 <0>         0.1380
@<TRIPOS>BOND
     1    1    2 1
     2    1   37 1
     3    1   38 1
     4    1   39 1
     5    2    7 ar
     6    2    3 ar
     7    3    4 ar
     8    3   40 1
     9    4    5 ar
    10    4   16 1
    11    5   10 1
    12    5    6 ar
    13    6    7 ar
    14    6    8 1
    15    8   15 1
    16    8    9 1
    17    9   10 2
    18    9   11 1
    19   11   12 1
    20   11   41 1
    21   11   42 1
    22   12   13 1
    23   12   43 1
    24   12   44 1
    25   13   14 1
    26   13   45 1
    27   13   46 1
    28   14   15 1
    29   14   47 1
    30   14   48 1
    31   15   49 1
    32   15   50 1
    33   16   17 2
    34   16   18 am
    35   18   19 1
    36   18   51 1
    37   19   20 1
    38   19   21 1
    39   19   22 1
    40   21   52 1
    41   21   53 1
    42   21   54 1
    43   22   27 ar
    44   22   23 ar
    45   23   24 ar
    46   23   55 1
    47   24   25 ar
    48   24   56 1
    49   25   26 ar
    50   25   57 1
    51   26   27 ar
    52   26   28 1
    53   27   58 1
    54   28   29 am
    55   28   59 1
    56   29   30 2
    57   29   31 1
    58   31   36 ar
    59   31   32 ar
    60   32   33 ar
    61   32   60 1
    62   33   34 ar
    63   33   61 1
    64   34   35 ar
    65   34   62 1
    66   35   36 ar
    67   35   63 1
    68   36   64 1
@<TRIPOS>MOLECULE
ZINC09159357
   53    58     0     0     0
SMALL
USER_CHARGES

@<TRIPOS>ATOM
      1 C1          0.8747    1.2896    0.4242 C.ar      1 <0>        -0.0877
      2 C2          0.9055    1.1968   -0.9556 C.ar      1 <0>        -0.1247
      3 C3          1.6528    0.2104   -1.5668 C.ar      1 <0>        -0.0770
      4 C4          2.3769   -0.6927   -0.7915 C.ar      1 <0>        -0.0401
      5 C5          2.3423   -0.5946    0.5979 C.ar      1 <0>        -0.0971
      6 C6          1.5917    0.3956    1.1987 C.ar      1 <0>        -0.1234
      7 C7          3.1819   -1.7558   -1.4432 C.2       1 <0>         0.1739
      8 C8          3.2086   -3.1054   -1.0807 C.2       1 <0>        -0.2445
      9 C9          4.0692   -3.7519   -1.9230 C.2       1 <0>         0.2888
     10 N1          4.5646   -2.8382   -2.7826 N.pl3     1 <0>        -0.4408
     11 H1          5.2008   -3.0110   -3.4941 H         1 <0>         0.4508
     12 N2          3.9940   -1.5945   -2.4705 N.2       1 <0>        -0.2444
     13 O1          4.3172   -5.0821   -1.8330 O.3       1 <0>        -0.2262
     14 C10         3.4995   -5.8272   -1.0618 C.2       1 <0>         0.4571
     15 C11         2.6149   -5.3032   -0.1810 C.2       1 <0>        -0.2503
     16 C12         2.4694   -3.8192    0.0154 C.3       1 <0>         0.1292
     17 C13         2.9583   -3.3986    1.3641 C.ar      1 <0>        -0.1402
     18 C14         4.1981   -3.4929    1.9587 C.ar      1 <0>        -0.0434
     19 C15         4.3181   -2.9931    3.2509 C.ar      1 <0>        -0.1481
     20 C16         3.2425   -2.4283    3.9057 C.ar      1 <0>        -0.0765
     21 C17         1.9925   -2.3307    3.3149 C.ar      1 <0>        -0.1471
     22 C18         1.8583   -2.8294    2.0182 C.ar      1 <0>         0.1665
     23 N3          0.7421   -2.8634    1.2009 N.am      1 <0>        -0.5399
     24 C19         1.0079   -3.4292    0.0045 C.2       1 <0>         0.5467
     25 O2          0.2240   -3.5933   -0.9062 O.2       1 <0>        -0.4692
     26 C20        -0.5727   -2.3464    1.5884 C.3       1 <0>         0.1536
     27 C21        -0.9437   -1.1940    0.6909 C.ar      1 <0>        -0.1063
     28 C22        -1.1731    0.0572    1.2322 C.ar      1 <0>        -0.0819
     29 C23        -1.5134    1.1145    0.4096 C.ar      1 <0>        -0.1132
     30 C24        -1.6244    0.9205   -0.9558 C.ar      1 <0>        -0.0280
     31 C25        -1.3947   -0.3320   -1.4969 C.ar      1 <0>        -0.1045
     32 C26        -1.0489   -1.3872   -0.6739 C.ar      1 <0>        -0.1068
     33 Cl1        -2.0524    2.2478   -1.9895 Cl        1 <0>        -0.0744
     34 C27         1.7928   -6.1890    0.5871 C.1       1 <0>         0.2660
     35 N4          1.1406   -6.8917    1.1965 N.1       1 <0>        -0.4239
     36 N5          3.5676   -7.1934   -1.1766 N.pl3     1 <0>        -0.8228
     37 H2          0.2922    2.0657    0.8983 H         1 <0>         0.1250
     38 H3          0.3436    1.8972   -1.5556 H         1 <0>         0.1253
     39 H4          1.6759    0.1386   -2.6442 H         1 <0>         0.1192
     40 H5          2.9014   -1.2924    1.2036 H         1 <0>         0.1358
     41 H6          1.5644    0.4728    2.2756 H         1 <0>         0.1205
     42 H7          5.0386   -3.9348    1.4442 H         1 <0>         0.1323
     43 H8          5.2731   -3.0476    3.7523 H         1 <0>         0.1270
     44 H9          3.3788   -2.0515    4.9086 H         1 <0>         0.1284
     45 H10         1.1570   -1.8874    3.8363 H         1 <0>         0.1349
     46 H11        -1.3170   -3.1367    1.4912 H         1 <0>         0.0915
     47 H12        -0.5383   -2.0048    2.6229 H         1 <0>         0.1007
     48 H13        -1.0868    0.2085    2.2980 H         1 <0>         0.1296
     49 H14        -1.6930    2.0919    0.8326 H         1 <0>         0.1326
     50 H15        -1.4815   -0.4841   -2.5626 H         1 <0>         0.1277
     51 H16        -0.8649   -2.3638   -1.0967 H         1 <0>         0.1747
     52 H17         4.1918   -7.5972   -1.7997 H         1 <0>         0.4148
     53 H18         2.9916   -7.7549   -0.6346 H         1 <0>         0.4300
@<TRIPOS>BOND
     1    1    6 ar
     2    1    2 ar
     3    1   37 1
     4    2    3 ar
     5    2   38 1
     6    3    4 ar
     7    3   39 1
     8    4    5 ar
     9    4    7 1
    10    5    6 ar
    11    5   40 1
    12    6   41 1
    13    7   12 2
    14    7    8 1
    15    8   16 1
    16    8    9 2
    17    9   10 1
    18    9   13 1
    19   10   11 1
    20   10   12 1
    21   13   14 1
    22   14   15 2
    23   14   36 1
    24   15   16 1
    25   15   34 1
    26   16   24 1
    27   16   17 1
    28   17   22 ar
    29   17   18 ar
    30   18   19 ar
    31   18   42 1
    32   19   20 ar
    33   19   43 1
    34   20   21 ar
    35   20   44 1
    36   21   22 ar
    37   21   45 1
    38   22   23 1
    39   23   24 am
    40   23   26 1
    41   24   25 2
    42   26   27 1
    43   26   46 1
    44   26   47 1
    45   27   32 ar
    46   27   28 ar
    47   28   29 ar
    48   28   48 1
    49   29   30 ar
    50   29   49 1
    51   30   31 ar
    52   30   33 1
    53   31   32 ar
    54   31   50 1
    55   32   51 1
    56   34   35 3
    57   36   52 1
    58   36   53 1
@<TRIPOS>MOLECULE
ZINC10121229
   64    66     0     0     0
SMALL
USER_CHARGES
N-[[4-[(2,6-dimethylphenyl)sulfamoyl]phenyl]thiocarbamoyl]-3-sec-butoxy-benzamide
@<TRIPOS>ATOM
      1 C1          5.4377   13.8370   -0.1555 C.3       1 <0>        -0.1560
      2 C2          4.1465   13.5844   -0.9365 C.3       1 <0>        -0.1202
      3 C3          3.5840   12.2118   -0.5616 C.3       1 <0>         0.0796
      4 H1          3.4564   12.1544    0.5194 H         1 <0>         0.0751
      5 C4          2.2305   12.0110   -1.2463 C.3       1 <0>        -0.1835
      6 O1          4.4899   11.1928   -0.9891 O.3       1 <0>        -0.3015
      7 C5          4.4453   10.0086   -0.3236 C.ar      1 <0>         0.1347
      8 C6          3.4723    9.7922    0.6433 C.ar      1 <0>        -0.1817
      9 C7          3.4260    8.5922    1.3283 C.ar      1 <0>        -0.0809
     10 C8          4.3426    7.5987    1.0511 C.ar      1 <0>        -0.1312
     11 C9          5.3207    7.8045    0.0764 C.ar      1 <0>        -0.0968
     12 C10         5.3663    9.0166   -0.6139 C.ar      1 <0>        -0.0878
     13 C11         6.3044    6.7431   -0.2229 C.2       1 <0>         0.5357
     14 O2          7.1551    6.9248   -1.0715 O.2       1 <0>        -0.3930
     15 N1          6.2580    5.5735    0.4452 N.am      1 <0>        -0.6361
     16 C12         7.1552    4.6054    0.1722 C.2       1 <0>         0.5072
     17 S1          8.3536    4.8615   -1.0233 S.2       1 <0>        -0.4653
     18 N2          7.1088    3.4358    0.8403 N.pl3     1 <0>        -0.6276
     19 C13         7.9863    2.4009    0.5003 C.ar      1 <0>         0.1765
     20 C14         7.5176    1.0979    0.3940 C.ar      1 <0>        -0.1400
     21 C15         8.3855    0.0791    0.0530 C.ar      1 <0>        -0.0081
     22 C16         9.7221    0.3536   -0.1714 C.ar      1 <0>        -0.6688
     23 C17        10.1930    1.6491   -0.0613 C.ar      1 <0>        -0.0125
     24 C18         9.3292    2.6733    0.2738 C.ar      1 <0>        -0.0923
     25 S2         10.8275   -0.9502   -0.5991 S.o2      1 <0>         2.6842
     26 O3         10.0525   -1.9375   -1.2653 O.2       1 <0>        -0.9382
     27 O4         11.9624   -0.3402   -1.1984 O.2       1 <0>        -0.9489
     28 N3         11.3495   -1.6336    0.8161 N.pl3     1 <0>        -1.0573
     29 C19        10.5023   -2.4768    1.5386 C.ar      1 <0>         0.1161
     30 C20         9.9166   -2.0317    2.7170 C.ar      1 <0>        -0.0712
     31 C21         9.0756   -2.8664    3.4264 C.ar      1 <0>        -0.1253
     32 C22         8.8246   -4.1476    2.9705 C.ar      1 <0>        -0.0999
     33 C23         9.4102   -4.5957    1.8006 C.ar      1 <0>        -0.1212
     34 C24        10.2480   -3.7644    1.0835 C.ar      1 <0>        -0.0539
     35 C25        10.8853   -4.2534   -0.1916 C.3       1 <0>        -0.1255
     36 C26        10.1944   -0.6378    3.2178 C.3       1 <0>        -0.1189
     37 H2          5.2268   13.8104    0.9136 H         1 <0>         0.0528
     38 H3          6.1677   13.0657   -0.4011 H         1 <0>         0.0620
     39 H4          5.8385   14.8148   -0.4226 H         1 <0>         0.0599
     40 H5          4.3574   13.6109   -2.0056 H         1 <0>         0.0767
     41 H6          3.4165   14.3557   -0.6909 H         1 <0>         0.0842
     42 H7          1.5395   12.7883   -0.9202 H         1 <0>         0.0751
     43 H8          2.3581   12.0685   -2.3273 H         1 <0>         0.0707
     44 H9          1.8298   11.0332   -0.9792 H         1 <0>         0.0628
     45 H10         2.7522   10.5661    0.8645 H         1 <0>         0.1378
     46 H11         2.6698    8.4318    2.0825 H         1 <0>         0.1351
     47 H12         4.3037    6.6624    1.5881 H         1 <0>         0.1233
     48 H13         6.1205    9.1819   -1.3690 H         1 <0>         0.1492
     49 H14         5.5790    5.4284    1.1225 H         1 <0>         0.4110
     50 H15         6.4670    3.3118    1.5569 H         1 <0>         0.4110
     51 H16         6.4746    0.8822    0.5735 H         1 <0>         0.1357
     52 H17         8.0208   -0.9337   -0.0341 H         1 <0>         0.1437
     53 H18        11.2373    1.8603   -0.2379 H         1 <0>         0.1479
     54 H19         9.6975    3.6849    0.3593 H         1 <0>         0.1576
     55 H20        12.2437   -1.4483    1.1433 H         1 <0>         0.4249
     56 H21         8.6167   -2.5196    4.3405 H         1 <0>         0.1261
     57 H22         8.1701   -4.7999    3.5295 H         1 <0>         0.1265
     58 H23         9.2124   -5.5970    1.4475 H         1 <0>         0.1290
     59 H24        11.7778   -4.8319    0.0469 H         1 <0>         0.0703
     60 H25        10.1786   -4.8823   -0.7330 H         1 <0>         0.0754
     61 H26        11.1605   -3.3996   -0.8109 H         1 <0>         0.0742
     62 H27         9.4079    0.0347    2.8756 H         1 <0>         0.0724
     63 H28        10.2205   -0.6417    4.3075 H         1 <0>         0.0706
     64 H29        11.1559   -0.2982    2.8326 H         1 <0>         0.0685
@<TRIPOS>BOND
     1    1    2 1
     2    1   37 1
     3    1   38 1
     4    1   39 1
     5    2    3 1
     6    2   40 1
     7    2   41 1
     8    3    4 1
     9    3    5 1
    10    3    6 1
    11    5   42 1
    12    5   43 1
    13    5   44 1
    14    6    7 1
    15    7   12 ar
    16    7    8 ar
    17    8    9 ar
    18    8   45 1
    19    9   10 ar
    20    9   46 1
    21   10   11 ar
    22   10   47 1
    23   11   12 ar
    24   11   13 1
    25   12   48 1
    26   13   14 2
    27   13   15 am
    28   15   16 1
    29   15   49 1
    30   16   17 2
    31   16   18 1
    32   18   19 1
    33   18   50 1
    34   19   24 ar
    35   19   20 ar
    36   20   21 ar
    37   20   51 1
    38   21   22 ar
    39   21   52 1
    40   22   23 ar
    41   22   25 1
    42   23   24 ar
    43   23   53 1
    44   24   54 1
    45   25   26 2
    46   25   27 2
    47   25   28 1
    48   28   29 1
    49   28   55 1
    50   29   34 ar
    51   29   30 ar
    52   30   31 ar
    53   30   36 1
    54   31   32 ar
    55   31   56 1
    56   32   33 ar
    57   32   57 1
    58   33   34 ar
    59   33   58 1
    60   34   35 1
    61   35   59 1
    62   35   60 1
    63   35   61 1
    64   36   62 1
    65   36   63 1
    66   36   64 1
@<TRIPOS>MOLECULE
ZINC14664698
   54    56     0     0     0
SMALL
USER_CHARGES
N-[[[2-[(1-bromo-2-naphthyl)oxy]acetyl]amino]carbamothioyl]-2-isopropoxy-benzamide
@<TRIPOS>ATOM
      1 C1          1.4567    2.6157   -1.4308 C.3       1 <0>        -0.1820
      2 C2          1.1390    2.1932    0.0050 C.3       1 <0>         0.0717
      3 C3          0.8680    3.4367    0.8543 C.3       1 <0>        -0.1488
      4 O1         -0.0163    1.3523    0.0095 O.3       1 <0>        -0.2734
      5 C4          0.1828    0.0311   -0.2247 C.ar      1 <0>         0.2012
      6 C5          1.4444   -0.4337   -0.5654 C.ar      1 <0>        -0.2182
      7 C6          1.6468   -1.7795   -0.7979 C.ar      1 <0>        -0.0439
      8 C7          0.5922   -2.6734   -0.7044 C.ar      1 <0>        -0.1645
      9 C8         -0.6689   -2.2287   -0.3727 C.ar      1 <0>        -0.0531
     10 C9         -0.8868   -0.8700   -0.1291 C.ar      1 <0>        -0.1802
     11 C10        -2.2340   -0.3869    0.2258 C.2       1 <0>         0.5346
     12 O2         -2.4196    0.7958    0.4366 O.2       1 <0>        -0.3788
     13 N1         -3.2595   -1.2567    0.3166 N.am      1 <0>        -0.6447
     14 C11        -4.4909   -0.8152    0.6411 C.2       1 <0>         0.5170
     15 S1         -4.7523    0.8505    0.9379 S.2       1 <0>        -0.4500
     16 N2         -5.5164   -1.6850    0.7319 N.pl3     1 <0>        -0.4567
     17 N3         -5.3024   -3.0481    0.4890 N.am      1 <0>        -0.5510
     18 C12        -6.3280   -3.9179    0.5798 C.2       1 <0>         0.5213
     19 O3         -7.4360   -3.5206    0.8718 O.2       1 <0>        -0.4822
     20 C13        -6.0978   -5.3841    0.3185 C.3       1 <0>         0.0492
     21 O4         -7.3276   -6.0947    0.4756 O.3       1 <0>        -0.2737
     22 C14        -7.2940   -7.4383    0.2736 C.ar      1 <0>         0.1601
     23 C15        -6.0871   -8.0543   -0.0709 C.ar      1 <0>        -0.1958
     24 C16        -6.0216   -9.3967   -0.2794 C.ar      1 <0>        -0.0416
     25 C17        -7.1811  -10.1805   -0.1473 C.ar      1 <0>        -0.0791
     26 C18        -7.1487  -11.5700   -0.3550 C.ar      1 <0>        -0.0914
     27 C19        -8.2902  -12.2984   -0.2182 C.ar      1 <0>        -0.1220
     28 C20        -9.4948  -11.6873    0.1255 C.ar      1 <0>        -0.0920
     29 C21        -9.5642  -10.3444    0.3348 C.ar      1 <0>        -0.1197
     30 C22        -8.4061   -9.5590    0.2024 C.ar      1 <0>         0.0047
     31 C23        -8.4390   -8.1704    0.4155 C.ar      1 <0>        -0.1247
     32 Br1       -10.0597   -7.3190    0.8892 Br        1 <0>        -0.0202
     33 H1          1.6498    1.7298   -2.0359 H         1 <0>         0.0615
     34 H2          0.6088    3.1610   -1.8452 H         1 <0>         0.0716
     35 H3          2.3380    3.2571   -1.4342 H         1 <0>         0.0752
     36 H4          1.9870    1.6479    0.4194 H         1 <0>         0.0746
     37 H5          0.6416    3.1357    1.8772 H         1 <0>         0.0667
     38 H6          1.7493    4.0781    0.8509 H         1 <0>         0.0779
     39 H7          0.0201    3.9820    0.4399 H         1 <0>         0.0718
     40 H8          2.2705    0.2574   -0.6449 H         1 <0>         0.1414
     41 H9          2.6319   -2.1369   -1.0588 H         1 <0>         0.1339
     42 H10         0.7596   -3.7236   -0.8928 H         1 <0>         0.1335
     43 H11        -1.4879   -2.9291   -0.3014 H         1 <0>         0.1240
     44 H12        -3.1114   -2.2005    0.1485 H         1 <0>         0.3983
     45 H13        -6.4026   -1.3672    0.9654 H         1 <0>         0.4587
     46 H14        -4.4162   -3.3659    0.2555 H         1 <0>         0.4188
     47 H15        -5.7279   -5.5183   -0.6980 H         1 <0>         0.1067
     48 H16        -5.3632   -5.7683    1.0262 H         1 <0>         0.1067
     49 H17        -5.1942   -7.4555   -0.1734 H         1 <0>         0.1389
     50 H18        -5.0823   -9.8587   -0.5451 H         1 <0>         0.1412
     51 H19        -6.2227  -12.0573   -0.6221 H         1 <0>         0.1324
     52 H20        -8.2622  -13.3661   -0.3782 H         1 <0>         0.1281
     53 H21       -10.3862  -12.2884    0.2276 H         1 <0>         0.1295
     54 H22       -10.5045   -9.8844    0.6007 H         1 <0>         0.1368
@<TRIPOS>BOND
     1    1    2 1
     2    1   33 1
     3    1   34 1
     4    1   35 1
     5    2    3 1
     6    2    4 1
     7    2   36 1
     8    3   37 1
     9    3   38 1
    10    3   39 1
    11    4    5 1
    12    5   10 ar
    13    5    6 ar
    14    6    7 ar
    15    6   40 1
    16    7    8 ar
    17    7   41 1
    18    8    9 ar
    19    8   42 1
    20    9   10 ar
    21    9   43 1
    22   10   11 1
    23   11   12 2
    24   11   13 am
    25   13   14 1
    26   13   44 1
    27   14   15 2
    28   14   16 1
    29   16   17 1
    30   16   45 1
    31   17   18 am
    32   17   46 1
    33   18   19 2
    34   18   20 1
    35   20   21 1
    36   20   47 1
    37   20   48 1
    38   21   22 1
    39   22   31 ar
    40   22   23 ar
    41   23   24 ar
    42   23   49 1
    43   24   25 ar
    44   24   50 1
    45   25   30 ar
    46   25   26 ar
    47   26   27 ar
    48   26   51 1
    49   27   28 ar
    50   27   52 1
    51   28   29 ar
    52   28   53 1
    53   29   30 ar
    54   29   54 1
    55   30   31 ar
    56   31   32 1
@<TRIPOS>MOLECULE
ZINC20837404
   63    68     0     0     0
SMALL
USER_CHARGES
3-[[5-[(N'E)-N'-[1-(1-adamantyl)ethylidene]hydrazino]-4H-1,2,4-triazol-3-yl]sulfanyl]-N-(1,3-benzothiazol-2-yl)propanamide
@<TRIPOS>ATOM
      1 C1         -0.9222    3.2307    3.8769 C.3       1 <0>        -0.1669
      2 C2         -1.4550    3.5951    2.5151 C.2       1 <0>         0.1227
      3 N1         -2.5068    4.3175    2.4116 N.2       1 <0>        -0.2545
      4 N2         -3.1626    4.7693    3.5642 N.pl3     1 <0>        -0.5647
      5 C3         -4.3033    5.5527    3.4519 C.2       1 <0>         0.5429
      6 N3         -5.0365    6.0576    4.4893 N.2       1 <0>        -0.5570
      7 C4         -6.0762    6.7711    3.9635 C.2       1 <0>         0.2226
      8 N4         -5.9896    6.7101    2.6564 N.2       1 <0>        -0.3198
      9 N5         -4.8629    5.9427    2.3327 N.pl3     1 <0>        -0.4756
     10 S1         -7.3153    7.6245    4.8807 S.3       1 <0>         0.0383
     11 C5         -8.3803    8.3539    3.6062 C.3       1 <0>        -0.1106
     12 C6         -9.5140    9.1344    4.2744 C.3       1 <0>        -0.1180
     13 C7        -10.3987    9.7404    3.2156 C.2       1 <0>         0.5258
     14 O1        -10.1473    9.5654    2.0423 O.2       1 <0>        -0.4901
     15 N6        -11.4695   10.4769    3.5727 N.am      1 <0>        -0.6248
     16 C8        -12.2828   11.0341    2.5994 C.2       1 <0>         0.3648
     17 N7        -13.3574   11.7729    2.7485 N.2       1 <0>        -0.5467
     18 C9        -14.0592   12.2537    1.6995 C.ar      1 <0>         0.1014
     19 C10       -15.2242   13.0550    1.7218 C.ar      1 <0>        -0.0708
     20 C11       -15.8170   13.4613    0.5551 C.ar      1 <0>        -0.1069
     21 C12       -15.3014   13.1045   -0.6828 C.ar      1 <0>        -0.1046
     22 C13       -14.1632   12.3216   -0.7421 C.ar      1 <0>        -0.0597
     23 C14       -13.5623   11.9104    0.4214 C.ar      1 <0>        -0.1820
     24 S2        -12.1313   10.9362    0.8213 S.3       1 <0>         0.0914
     25 C15        -0.7496    3.1091    1.2752 C.3       1 <0>         0.0101
     26 C16        -0.7288    1.5792    1.2668 C.3       1 <0>        -0.0998
     27 C17        -0.0127    1.0858    0.0080 C.3       1 <0>        -0.0843
     28 C18        -0.7527    1.5927   -1.2315 C.3       1 <0>        -0.1113
     29 C19        -0.7734    3.1225   -1.2231 C.3       1 <0>        -0.0878
     30 C20        -1.4896    3.6159    0.0357 C.3       1 <0>        -0.0960
     31 C21         0.6619    3.6521   -1.2340 C.3       1 <0>        -0.1113
     32 C22         1.4019    3.1452    0.0056 C.3       1 <0>        -0.0843
     33 C23         1.4227    1.6154   -0.0028 C.3       1 <0>        -0.1111
     34 C24         0.6858    3.6387    1.2644 C.3       1 <0>        -0.0997
     35 H1         -0.0204    2.6111    3.7640 H         1 <0>         0.0903
     36 H2         -1.6872    2.6672    4.4312 H         1 <0>         0.0814
     37 H3         -0.6701    4.1478    4.4294 H         1 <0>         0.0813
     38 H4         -2.7737    4.5034    4.5582 H         1 <0>         0.4344
     39 H5         -7.7869    9.0347    2.9781 H         1 <0>         0.1054
     40 H6         -8.8044    7.5543    2.9810 H         1 <0>         0.1054
     41 H7        -10.1073    8.4536    4.9024 H         1 <0>         0.1205
     42 H8         -9.0899    9.9340    4.8996 H         1 <0>         0.1205
     43 H9        -11.6977   10.6356    4.6370 H         1 <0>         0.4587
     44 H10       -15.6512   13.3503    2.6688 H         1 <0>         0.1317
     45 H11       -16.7060   14.0728    0.6000 H         1 <0>         0.1338
     46 H12       -15.7839   13.4353   -1.5906 H         1 <0>         0.1378
     47 H13       -13.7498   12.0353   -1.6979 H         1 <0>         0.1325
     48 H14        -0.1967    1.2149    2.1580 H         1 <0>         0.0692
     49 H15        -1.7608    1.1984    1.2747 H         1 <0>         0.0661
     50 H16         0.0022   -0.0141    0.0019 H         1 <0>         0.0745
     51 H17        -0.2379    1.2379   -2.1365 H         1 <0>         0.0644
     52 H18        -1.7847    1.2120   -1.2237 H         1 <0>         0.0626
     53 H19        -1.3053    3.4869   -2.1143 H         1 <0>         0.0727
     54 H20        -2.5216    3.2351    0.0435 H         1 <0>         0.0672
     55 H21        -1.5046    4.7158    0.0418 H         1 <0>         0.0672
     56 H22         1.1767    3.2974   -2.1390 H         1 <0>         0.0644
     57 H23         0.6470    4.7520   -1.2280 H         1 <0>         0.0626
     58 H24         2.4339    3.5259   -0.0022 H         1 <0>         0.0745
     59 H25         1.9547    1.2510    0.8884 H         1 <0>         0.0640
     60 H26         1.9376    1.2606   -0.9078 H         1 <0>         0.0651
     61 H27         0.6709    4.7386    1.2704 H         1 <0>         0.0661
     62 H28         1.2178    3.2744    2.1556 H         1 <0>         0.0692
     63 H29        -4.4244    5.6499    1.3673 H         1 <0>         0.4745
@<TRIPOS>BOND
     1    1    2 1
     2    1   35 1
     3    1   36 1
     4    1   37 1
     5    2    3 2
     6    2   25 1
     7    3    4 1
     8    4    5 1
     9    4   38 1
    10    5    9 1
    11    5    6 2
    12    6    7 1
    13    7    8 2
    14    7   10 1
    15    8    9 1
    16    9   63 1
    17   10   11 1
    18   11   12 1
    19   11   39 1
    20   11   40 1
    21   12   13 1
    22   12   41 1
    23   12   42 1
    24   13   14 2
    25   13   15 am
    26   15   16 1
    27   15   43 1
    28   16   24 1
    29   16   17 2
    30   17   18 1
    31   18   23 ar
    32   18   19 ar
    33   19   20 ar
    34   19   44 1
    35   20   21 ar
    36   20   45 1
    37   21   22 ar
    38   21   46 1
    39   22   23 ar
    40   22   47 1
    41   23   24 1
    42   25   30 1
    43   25   34 1
    44   25   26 1
    45   26   27 1
    46   26   48 1
    47   26   49 1
    48   27   33 1
    49   27   28 1
    50   27   50 1
    51   28   29 1
    52   28   51 1
    53   28   52 1
    54   29   30 1
    55   29   31 1
    56   29   53 1
    57   30   54 1
    58   30   55 1
    59   31   32 1
    60   31   56 1
    61   31   57 1
    62   32   33 1
    63   32   34 1
    64   32   58 1
    65   33   59 1
    66   33   60 1
    67   34   61 1
    68   34   62 1
@<TRIPOS>MOLECULE
ZINC35711991
   63    65     0     0     0
SMALL
USER_CHARGES

@<TRIPOS>ATOM
      1 C1          2.0969    1.3472   -1.1936 C.3       1 <0>        -0.1499
      2 C2          2.0120   -0.1613   -1.4345 C.3       1 <0>        -0.1415
      3 C3          1.0592   -0.7879   -0.4144 C.3       1 <0>         0.0974
      4 N1          0.9779   -2.2323   -0.6451 N.am      1 <0>        -0.5382
      5 C4          1.9364   -3.0290   -0.0871 C.2       1 <0>         0.2622
      6 C5          1.9182   -4.3680   -0.2618 C.2       1 <0>        -0.2866
      7 C6          0.7985   -4.9550   -1.0971 C.3       1 <0>         0.2411
      8 H1          1.2486   -5.4994   -1.9273 H         1 <0>         0.0906
      9 N2         -0.1846   -4.0103   -1.6535 N.am      1 <0>        -0.7113
     10 C7         -0.0351   -2.6978   -1.3868 C.2       1 <0>         0.7048
     11 O1         -0.8436   -1.9103   -1.8382 O.2       1 <0>        -0.5575
     12 C8          0.0546   -5.9496   -0.2437 C.ar      1 <0>        -0.0881
     13 C9         -0.8855   -5.5091    0.6700 C.ar      1 <0>        -0.1095
     14 C10        -1.5699   -6.4184    1.4552 C.ar      1 <0>        -0.1022
     15 C11        -1.3166   -7.7704    1.3289 C.ar      1 <0>        -0.1104
     16 C12        -0.3737   -8.2159    0.4123 C.ar      1 <0>         0.1578
     17 C13         0.3083   -7.3003   -0.3787 C.ar      1 <0>        -0.1025
     18 N3         -0.1148   -9.5850    0.2819 N.am      1 <0>        -0.6778
     19 C14        -0.1818  -10.3892    1.3613 C.2       1 <0>         0.7054
     20 O2         -0.3752   -9.9130    2.4632 O.2       1 <0>        -0.5500
     21 N4         -0.0346  -11.7214    1.2193 N.am      1 <0>        -0.6818
     22 C15        -0.2160  -12.5666    2.3197 C.ar      1 <0>         0.1664
     23 C16        -1.1448  -12.2428    3.3003 C.ar      1 <0>        -0.0882
     24 C17        -1.3215  -13.0790    4.3849 C.ar      1 <0>        -0.0971
     25 C18        -0.5745  -14.2376    4.4957 C.ar      1 <0>        -0.0873
     26 C19         0.3509  -14.5628    3.5212 C.ar      1 <0>        -0.1616
     27 C20         0.5280  -13.7337    2.4307 C.ar      1 <0>        -0.0987
     28 C21         1.1632  -15.8260    3.6462 C.3       1 <0>         0.5099
     29 F1          0.8053  -16.4962    4.8209 F         1 <0>        -0.1747
     30 F2          0.9144  -16.6512    2.5442 F         1 <0>        -0.1760
     31 F3          2.5237  -15.5032    3.6894 F         1 <0>        -0.1754
     32 C22         2.9110   -5.1943    0.3149 C.2       1 <0>         0.5366
     33 O3          3.8012   -4.7009    0.9817 O.2       1 <0>        -0.5186
     34 O4          2.8707   -6.5298    0.1255 O.3       1 <0>        -0.3438
     35 C23         3.9051   -7.3032    0.7370 C.3       1 <0>         0.0652
     36 C24         3.6940   -8.7836    0.4135 C.3       1 <0>        -0.1499
     37 C25         3.0325   -2.4038    0.7368 C.3       1 <0>        -0.1316
     38 H2          1.1063    1.7888   -1.3026 H         1 <0>         0.0603
     39 H3          2.4691    1.5339   -0.1862 H         1 <0>         0.0586
     40 H4          2.7757    1.7936   -1.9202 H         1 <0>         0.0624
     41 H5          1.6398   -0.3480   -2.4418 H         1 <0>         0.0709
     42 H6          3.0025   -0.6030   -1.3254 H         1 <0>         0.0684
     43 H7          1.4313   -0.6012    0.5929 H         1 <0>         0.0965
     44 H8          0.0686   -0.3462   -0.5235 H         1 <0>         0.1080
     45 H9         -0.9241   -4.3256   -2.1964 H         1 <0>         0.4330
     46 H10        -1.0853   -4.4525    0.7706 H         1 <0>         0.1139
     47 H11        -2.3029   -6.0711    2.1682 H         1 <0>         0.1256
     48 H12        -1.8512   -8.4802    1.9428 H         1 <0>         0.1338
     49 H13         1.0392   -7.6440   -1.0957 H         1 <0>         0.1310
     50 H14         0.1130   -9.9551   -0.5853 H         1 <0>         0.4090
     51 H15         0.1972  -12.0942    0.3543 H         1 <0>         0.4114
     52 H16        -1.7280  -11.3378    3.2147 H         1 <0>         0.1459
     53 H17        -2.0436  -12.8277    5.1478 H         1 <0>         0.1408
     54 H18        -0.7140  -14.8896    5.3453 H         1 <0>         0.1413
     55 H19         1.2478  -13.9905    1.6676 H         1 <0>         0.1373
     56 H20         4.8737   -6.9821    0.3538 H         1 <0>         0.0663
     57 H21         3.8759   -7.1595    1.8171 H         1 <0>         0.0653
     58 H22         4.4830   -9.3735    0.8800 H         1 <0>         0.0774
     59 H23         2.7254   -9.1047    0.7967 H         1 <0>         0.0624
     60 H24         3.7232   -8.9273   -0.6666 H         1 <0>         0.0648
     61 H25         2.8774   -1.3262    0.7899 H         1 <0>         0.0771
     62 H26         3.0153   -2.8234    1.7426 H         1 <0>         0.1058
     63 H27         3.9975   -2.6096    0.2737 H         1 <0>         0.1055
@<TRIPOS>BOND
     1    1    2 1
     2    1   38 1
     3    1   39 1
     4    1   40 1
     5    2    3 1
     6    2   41 1
     7    2   42 1
     8    3    4 1
     9    3   43 1
    10    3   44 1
    11    4   10 am
    12    4    5 1
    13    5    6 2
    14    5   37 1
    15    6    7 1
    16    6   32 1
    17    7    8 1
    18    7    9 1
    19    7   12 1
    20    9   10 am
    21    9   45 1
    22   10   11 2
    23   12   17 ar
    24   12   13 ar
    25   13   14 ar
    26   13   46 1
    27   14   15 ar
    28   14   47 1
    29   15   16 ar
    30   15   48 1
    31   16   17 ar
    32   16   18 1
    33   17   49 1
    34   18   19 am
    35   18   50 1
    36   19   20 2
    37   19   21 am
    38   21   22 1
    39   21   51 1
    40   22   27 ar
    41   22   23 ar
    42   23   24 ar
    43   23   52 1
    44   24   25 ar
    45   24   53 1
    46   25   26 ar
    47   25   54 1
    48   26   27 ar
    49   26   28 1
    50   27   55 1
    51   28   29 1
    52   28   30 1
    53   28   31 1
    54   32   33 2
    55   32   34 1
    56   34   35 1
    57   35   36 1
    58   35   56 1
    59   35   57 1
    60   36   58 1
    61   36   59 1
    62   36   60 1
    63   37   61 1
    64   37   62 1
    65   37   63 1
@<TRIPOS>MOLECULE
ZINC66092410
   68    71     0     0     0
SMALL
USER_CHARGES

@<TRIPOS>ATOM
      1 C1          7.6915   -5.2722    3.2576 C.3       1 <0>        -0.1587
      2 C2          7.6121   -3.8060    3.6875 C.3       1 <0>         0.1838
      3 H1          8.0038   -3.7023    4.6994 H         1 <0>         0.0991
      4 C3          8.4284   -2.9609    2.7438 C.ar      1 <0>        -0.0936
      5 C4          7.9044   -2.5891    1.5198 C.ar      1 <0>        -0.1165
      6 C5          8.6532   -1.8139    0.6541 C.ar      1 <0>        -0.1149
      7 C6          9.9258   -1.4103    1.0126 C.ar      1 <0>        -0.1179
      8 C7         10.4494   -1.7814    2.2370 C.ar      1 <0>        -0.1140
      9 C8          9.6990   -2.5530    3.1044 C.ar      1 <0>        -0.1068
     10 N1          6.2160   -3.3629    3.6565 N.am      1 <0>        -0.7209
     11 C9          5.4154   -3.5831    4.7180 C.2       1 <0>         0.5611
     12 O1          5.8516   -4.1494    5.7011 O.2       1 <0>        -0.5270
     13 C10         4.0064   -3.1360    4.6867 C.ar      1 <0>        -0.1149
     14 C11         3.5013   -2.4904    3.5564 C.ar      1 <0>        -0.1010
     15 C12         2.1862   -2.0741    3.5298 C.ar      1 <0>        -0.1031
     16 C13         1.3644   -2.2938    4.6197 C.ar      1 <0>        -0.1181
     17 C14         1.8574   -2.9353    5.7493 C.ar      1 <0>         0.1375
     18 C15         3.1759   -3.3626    5.7838 C.ar      1 <0>        -0.0640
     19 N2          1.0215   -3.1553    6.8500 N.am      1 <0>        -0.6680
     20 C16         1.5389   -3.1839    8.0941 C.2       1 <0>         0.5081
     21 O2          2.7124   -2.9320    8.2688 O.2       1 <0>        -0.5043
     22 C17         0.6594   -3.5288    9.2682 C.3       1 <0>         0.1040
     23 N3          1.4522   -3.4919   10.4997 N.pl3     1 <0>        -0.7273
     24 C18         0.8526   -3.7774   11.7214 C.ar      1 <0>         0.2492
     25 C19        -0.4999   -4.1038   11.7719 C.ar      1 <0>        -0.2111
     26 C20        -1.0962   -4.3869   12.9793 C.ar      1 <0>        -0.0031
     27 C21        -0.3424   -4.3465   14.1560 C.ar      1 <0>        -0.2025
     28 C22         1.0156   -4.0184   14.1019 C.ar      1 <0>        -0.0482
     29 C23         1.6073   -3.7419   12.8907 C.ar      1 <0>        -0.2006
     30 C24        -0.9785   -4.6489   15.4519 C.2       1 <0>         0.5675
     31 O3         -2.1745   -4.4824   15.5958 O.2       1 <0>        -0.5163
     32 N4         -0.2342   -5.1099   16.4766 N.am      1 <0>        -0.5513
     33 C25         1.1812   -5.4263   16.2698 C.3       1 <0>         0.0552
     34 C26        -0.8131   -5.2862   17.7375 C.ar      1 <0>         0.1498
     35 C27        -2.1842   -5.1359   17.9009 C.ar      1 <0>        -0.1682
     36 C28        -2.7527   -5.3106   19.1474 C.ar      1 <0>        -0.0983
     37 C29        -1.9584   -5.6344   20.2321 C.ar      1 <0>        -0.1462
     38 C30        -0.5930   -5.7848   20.0727 C.ar      1 <0>        -0.0978
     39 C31        -0.0190   -5.6175   18.8277 C.ar      1 <0>        -0.1612
     40 H2          7.2998   -5.3759    2.2458 H         1 <0>         0.0597
     41 H3          8.7302   -5.6019    3.2807 H         1 <0>         0.0700
     42 H4          7.1010   -5.8834    3.9402 H         1 <0>         0.0664
     43 H5          6.9102   -2.9044    1.2397 H         1 <0>         0.1191
     44 H6          8.2441   -1.5240   -0.3024 H         1 <0>         0.1246
     45 H7         10.5111   -0.8053    0.3360 H         1 <0>         0.1240
     46 H8         11.4438   -1.4663    2.5169 H         1 <0>         0.1256
     47 H9         10.1066   -2.8398    4.0625 H         1 <0>         0.1255
     48 H10         5.8679   -2.9110    2.8719 H         1 <0>         0.3991
     49 H11         4.1402   -2.3167    2.7031 H         1 <0>         0.1270
     50 H12         1.7974   -1.5746    2.6547 H         1 <0>         0.1367
     51 H13         0.3359   -1.9653    4.5932 H         1 <0>         0.1337
     52 H14         3.5597   -3.8655    6.6592 H         1 <0>         0.1522
     53 H15         0.0697   -3.2872    6.7174 H         1 <0>         0.4168
     54 H16        -0.1537   -2.8062    9.3378 H         1 <0>         0.1002
     55 H17         0.2466   -4.5283    9.1317 H         1 <0>         0.1013
     56 H18         2.3953   -3.2682   10.4628 H         1 <0>         0.4156
     57 H19        -1.0817   -4.1345   10.8626 H         1 <0>         0.1290
     58 H20        -2.1455   -4.6397   13.0179 H         1 <0>         0.1348
     59 H21         1.6005   -3.9860   15.0092 H         1 <0>         0.1436
     60 H22         2.6573   -3.4930   12.8476 H         1 <0>         0.1306
     61 H23         1.7918   -4.5769   16.5758 H         1 <0>         0.0718
     62 H24         1.4490   -6.2995   16.8647 H         1 <0>         0.0793
     63 H25         1.3557   -5.6380   15.2148 H         1 <0>         0.0985
     64 H26        -2.8049   -4.8824   17.0544 H         1 <0>         0.1824
     65 H27        -3.8187   -5.1939   19.2752 H         1 <0>         0.1241
     66 H28        -2.4053   -5.7698   21.2059 H         1 <0>         0.1204
     67 H29         0.0246   -6.0373   20.9219 H         1 <0>         0.1242
     68 H30         1.0468   -5.7397   18.7030 H         1 <0>         0.1244
@<TRIPOS>BOND
     1    1    2 1
     2    1   40 1
     3    1   41 1
     4    1   42 1
     5    2    3 1
     6    2    4 1
     7    2   10 1
     8    4    9 ar
     9    4    5 ar
    10    5    6 ar
    11    5   43 1
    12    6    7 ar
    13    6   44 1
    14    7    8 ar
    15    7   45 1
    16    8    9 ar
    17    8   46 1
    18    9   47 1
    19   10   11 am
    20   10   48 1
    21   11   12 2
    22   11   13 1
    23   13   18 ar
    24   13   14 ar
    25   14   15 ar
    26   14   49 1
    27   15   16 ar
    28   15   50 1
    29   16   17 ar
    30   16   51 1
    31   17   18 ar
    32   17   19 1
    33   18   52 1
    34   19   20 am
    35   19   53 1
    36   20   21 2
    37   20   22 1
    38   22   23 1
    39   22   54 1
    40   22   55 1
    41   23   24 1
    42   23   56 1
    43   24   29 ar
    44   24   25 ar
    45   25   26 ar
    46   25   57 1
    47   26   27 ar
    48   26   58 1
    49   27   28 ar
    50   27   30 1
    51   28   29 ar
    52   28   59 1
    53   29   60 1
    54   30   31 2
    55   30   32 am
    56   32   33 1
    57   32   34 1
    58   33   61 1
    59   33   62 1
    60   33   63 1
    61   34   39 ar
    62   34   35 ar
    63   35   36 ar
    64   35   64 1
    65   36   37 ar
    66   36   65 1
    67   37   38 ar
    68   37   66 1
    69   38   39 ar
    70   38   67 1
    71   39   68 1
@<TRIPOS>MOLECULE
ZINC02226158
   64    67     0     0     0
SMALL
USER_CHARGES
ethyl 5-bromo-3-[3-(1,3,3-trimethyl-6-azabicyclo[3.2.1]oct-6-yl)propanoylamino]-1H-indole-2-carboxylate
@<TRIPOS>ATOM
      1 C1          3.8395   14.3479   -2.2358 C.3       1 <0>        -0.1559
      2 C2          3.0816   13.0843   -1.8237 C.3       1 <0>         0.0641
      3 O1          3.7196   11.9393   -2.3929 O.3       1 <0>        -0.3513
      4 C3          3.1716   10.7357   -2.1241 C.2       1 <0>         0.5341
      5 O2          2.1785   10.6618   -1.4249 O.2       1 <0>        -0.4927
      6 C4          3.7532    9.5568   -2.6567 C.2       1 <0>         0.0324
      7 C5          3.3900    8.2662   -2.3315 C.2       1 <0>         0.1610
      8 C6          4.2547    7.3782   -3.1122 C.ar      1 <0>        -0.1132
      9 C7          4.3599    5.9880   -3.2202 C.ar      1 <0>        -0.0168
     10 C8          5.2857    5.4406   -4.0624 C.ar      1 <0>        -0.1131
     11 C9          6.1207    6.2552   -4.8179 C.ar      1 <0>        -0.0509
     12 C10         6.0306    7.6260   -4.7316 C.ar      1 <0>        -0.1199
     13 C11         5.0940    8.2074   -3.8794 C.ar      1 <0>         0.1497
     14 N1          4.7794    9.5144   -3.5889 N.pl3     1 <0>        -0.5571
     15 H1          5.2112   10.2911   -3.9778 H         1 <0>         0.4350
     16 Br1         5.4317    3.5604   -4.2020 Br        1 <0>        -0.0390
     17 N2          2.3997    7.8828   -1.4330 N.am      1 <0>        -0.6387
     18 C12         1.3381    7.1723   -1.8628 C.2       1 <0>         0.5264
     19 O3          1.1836    6.9702   -3.0486 O.2       1 <0>        -0.5068
     20 C13         0.3432    6.6289   -0.8699 C.3       1 <0>        -0.1723
     21 C14        -0.7556    5.8672   -1.6137 C.3       1 <0>         0.0131
     22 C15        -1.1564    4.3478    0.2683 C.3       1 <0>        -0.0142
     23 C16        -2.2477    3.2654    0.4498 C.3       1 <0>        -0.0652
     24 C17        -3.5417    3.9613   -0.0528 C.3       1 <0>        -0.1373
     25 C18        -2.9480    4.7846   -1.2313 C.3       1 <0>         0.0387
     26 H2         -3.6455    5.5807   -1.5389 H         1 <0>         0.1500
     27 C19        -2.6612    3.8115   -2.3622 C.3       1 <0>        -0.1324
     28 C20        -1.9966    2.5058   -1.9853 C.3       1 <0>        -0.0622
     29 C21        -1.9525    2.1235   -0.5207 C.3       1 <0>        -0.1142
     30 C22        -2.7557    1.3760   -2.7282 C.3       1 <0>        -0.1516
     31 C23        -0.5608    2.4914   -2.5469 C.3       1 <0>        -0.1546
     32 C24        -2.3640    2.7938    1.9066 C.3       1 <0>        -0.1400
     33 H3          4.8670   14.2885   -1.8769 H         1 <0>         0.0694
     34 H4          3.8385   14.4341   -3.3223 H         1 <0>         0.0689
     35 H5          3.3529   15.2213   -1.8016 H         1 <0>         0.0860
     36 H6          2.0541   13.1436   -2.1825 H         1 <0>         0.0720
     37 H7          3.0826   12.9981   -0.7371 H         1 <0>         0.0730
     38 H8          3.7145    5.3490   -2.6358 H         1 <0>         0.1286
     39 H9          6.8481    5.8080   -5.4792 H         1 <0>         0.1462
     40 H10         6.6847    8.2496   -5.3230 H         1 <0>         0.1432
     41 H11         2.4731    8.1269   -0.4971 H         1 <0>         0.4184
     42 H12        -0.1004    7.4534   -0.3117 H         1 <0>         0.1221
     43 H13         0.8499    5.9541   -0.1800 H         1 <0>         0.1198
     44 H14        -0.3120    5.0427   -2.1719 H         1 <0>         0.1434
     45 H15        -1.2623    6.5420   -2.3037 H         1 <0>         0.1388
     46 H16        -0.9387    4.8139    1.2324 H         1 <0>         0.1260
     47 H17        -0.2485    3.9079   -0.1368 H         1 <0>         0.1367
     48 H18        -3.9637    4.6151    0.7087 H         1 <0>         0.0972
     49 H19        -4.2738    3.2383   -0.4065 H         1 <0>         0.1185
     50 H20        -2.0808    4.3004   -3.1574 H         1 <0>         0.0912
     51 H21        -3.6313    3.5649   -2.8491 H         1 <0>         0.1080
     52 H22        -2.6721    1.3089   -0.3398 H         1 <0>         0.0844
     53 H23        -0.9571    1.7106   -0.2886 H         1 <0>         0.0789
     54 H24        -2.2662    0.4214   -2.5350 H         1 <0>         0.0645
     55 H25        -3.7851    1.3350   -2.3724 H         1 <0>         0.0604
     56 H26        -2.7492    1.5773   -3.7994 H         1 <0>         0.0623
     57 H27        -0.5889    2.6753   -3.6209 H         1 <0>         0.0670
     58 H28         0.0275    3.2694   -2.0604 H         1 <0>         0.0463
     59 H29        -0.1059    1.5193   -2.3565 H         1 <0>         0.0696
     60 H30        -3.1764    2.0721    1.9911 H         1 <0>         0.0779
     61 H31        -1.4285    2.3254    2.2126 H         1 <0>         0.0724
     62 H32        -2.5695    3.6492    2.5501 H         1 <0>         0.0691
     63 N3         -1.7444    5.3684   -0.5987 N.4       1 <0>        -0.3929
     64 H33        -2.0325    6.1662   -0.0202 H         1 <0>         0.4275
@<TRIPOS>BOND
     1    1    2 1
     2    1   33 1
     3    1   34 1
     4    1   35 1
     5    2    3 1
     6    2   36 1
     7    2   37 1
     8    3    4 1
     9    4    5 2
    10    4    6 1
    11    6   14 1
    12    6    7 2
    13    7    8 1
    14    7   17 1
    15    8   13 ar
    16    8    9 ar
    17    9   10 ar
    18    9   38 1
    19   10   11 ar
    20   10   16 1
    21   11   12 ar
    22   11   39 1
    23   12   13 ar
    24   12   40 1
    25   13   14 1
    26   14   15 1
    27   17   18 am
    28   17   41 1
    29   18   19 2
    30   18   20 1
    31   20   21 1
    32   20   42 1
    33   20   43 1
    34   21   44 1
    35   21   45 1
    36   21   63 1
    37   22   23 1
    38   22   46 1
    39   22   47 1
    40   22   63 1
    41   23   29 1
    42   23   24 1
    43   23   32 1
    44   24   25 1
    45   24   48 1
    46   24   49 1
    47   25   26 1
    48   25   27 1
    49   25   63 1
    50   27   28 1
    51   27   50 1
    52   27   51 1
    53   28   29 1
    54   28   30 1
    55   28   31 1
    56   29   52 1
    57   29   53 1
    58   30   54 1
    59   30   55 1
    60   30   56 1
    61   31   57 1
    62   31   58 1
    63   31   59 1
    64   32   60 1
    65   32   61 1
    66   32   62 1
    67   63   64 1
@<TRIPOS>MOLECULE
ZINC13131537
   75    78     0     0     0
SMALL
USER_CHARGES
ethyl 6-benzyl-2-[[(2R)-2-(cyclooctylamino)propanoyl]amino]-5,7-dihydro-4H-thieno[5,4-c]pyridine-3-carboxylate
@<TRIPOS>ATOM
      1 C1          4.2628    5.8863   -2.5143 C.3       1 <0>        -0.1566
      2 C2          4.1849    5.3015   -1.1026 C.3       1 <0>         0.0566
      3 O1          3.9593    3.8694   -1.1837 O.3       1 <0>        -0.3485
      4 C3          3.8653    3.1973   -0.0181 C.2       1 <0>         0.5246
      5 O2          3.9691    3.7929    1.0374 O.2       1 <0>        -0.4881
      6 C4          3.6382    1.7507   -0.0233 C.2       1 <0>        -0.1705
      7 C5          4.7462    0.8139   -0.0380 C.2       1 <0>        -0.0588
      8 C6          4.3982   -0.4927   -0.0418 C.2       1 <0>        -0.1927
      9 S1          2.6297   -0.4893   -0.0180 S.3       1 <0>         0.2618
     10 C7          2.3531    1.2217   -0.0138 C.2       1 <0>         0.0455
     11 N1          1.1435    1.8983    0.0013 N.am      1 <0>        -0.6068
     12 C8         -0.0144    1.2086    0.0087 C.2       1 <0>         0.5025
     13 O3          0.0021   -0.0041    0.0020 O.2       1 <0>        -0.4961
     14 C9         -1.3296    1.9443    0.0189 C.3       1 <0>         0.0214
     15 H1         -1.4122    2.5447    0.9369 H         1 <0>         0.1652
     16 C10        -1.4285    2.8295   -1.2251 C.3       1 <0>        -0.1844
     17 N2         -2.4331    0.9746    0.0189 N.4       1 <0>        -0.5319
     18 C11        -3.6462    1.5576    0.6074 C.3       1 <0>         0.0073
     19 C12        -3.5990    1.4048    2.1292 C.3       1 <0>        -0.1400
     20 C13        -4.6304    2.3373    2.7673 C.3       1 <0>        -0.1302
     21 C14        -4.5675    3.7080    2.0909 C.3       1 <0>        -0.1312
     22 C15        -5.8634    3.9541    1.3155 C.3       1 <0>        -0.1311
     23 C16        -5.8460    3.1363    0.0225 C.3       1 <0>        -0.1314
     24 C17        -6.1281    1.6674    0.3439 C.3       1 <0>        -0.1301
     25 C18        -4.8776    0.8330    0.0600 C.3       1 <0>        -0.1352
     26 C19         5.3334   -1.6613   -0.0579 C.3       1 <0>         0.1322
     27 N3          6.6749   -1.1730   -0.4293 N.3       1 <0>        -0.5226
     28 C20         7.0447   -0.0026    0.3787 C.3       1 <0>         0.0519
     29 C21         6.2171    1.2136   -0.0469 C.3       1 <0>        -0.0605
     30 C22         7.6773   -2.2392   -0.3012 C.3       1 <0>         0.0926
     31 C23         7.4002   -3.3143   -1.3202 C.ar      1 <0>        -0.0839
     32 C24         6.5755   -4.3758   -0.9981 C.ar      1 <0>        -0.1176
     33 C25         6.3174   -5.3595   -1.9344 C.ar      1 <0>        -0.1205
     34 C26         6.8925   -5.2871   -3.1894 C.ar      1 <0>        -0.1168
     35 C27         7.7214   -4.2282   -3.5098 C.ar      1 <0>        -0.1190
     36 C28         7.9753   -3.2418   -2.5752 C.ar      1 <0>        -0.0959
     37 H2          4.4337    6.9712   -2.4528 H         1 <0>         0.0863
     38 H3          3.3181    5.6933   -3.0437 H         1 <0>         0.0661
     39 H4          5.0926    5.4148   -3.0612 H         1 <0>         0.0716
     40 H5          5.1296    5.4945   -0.5732 H         1 <0>         0.0767
     41 H6          3.3551    5.7730   -0.5556 H         1 <0>         0.0715
     42 H7          1.1286    2.9982    0.0072 H         1 <0>         0.4527
     43 H8         -2.3885    3.3665   -1.2176 H         1 <0>         0.1009
     44 H9         -1.3659    2.2028   -2.1270 H         1 <0>         0.0972
     45 H10        -0.6022    3.5556   -1.2251 H         1 <0>         0.1105
     46 H11        -2.6538    0.6703   -1.0149 H         1 <0>         0.4517
     47 H12        -3.6672    2.6209    0.3264 H         1 <0>         0.1537
     48 H13        -3.8284    0.3637    2.4004 H         1 <0>         0.0951
     49 H14        -2.5942    1.6656    2.4929 H         1 <0>         0.0799
     50 H15        -5.6370    1.9122    2.6406 H         1 <0>         0.0896
     51 H16        -4.4112    2.4476    3.8396 H         1 <0>         0.0829
     52 H17        -4.4439    4.4889    2.8557 H         1 <0>         0.0755
     53 H18        -3.7142    3.7358    1.3972 H         1 <0>         0.0578
     54 H19        -6.7225    3.6492    1.9311 H         1 <0>         0.0760
     55 H20        -5.9477    5.0236    1.0723 H         1 <0>         0.0714
     56 H21        -6.6183    3.5166   -0.6623 H         1 <0>         0.0757
     57 H22        -4.8583    3.2242   -0.4537 H         1 <0>         0.0595
     58 H23        -6.4003    1.5700    1.4052 H         1 <0>         0.0883
     59 H24        -6.9582    1.3080   -0.2820 H         1 <0>         0.0838
     60 H25        -4.7685    0.6935   -1.0256 H         1 <0>         0.0858
     61 H26        -4.9728   -0.1482    0.5480 H         1 <0>         0.0937
     62 H27         5.3618   -2.1219    0.9406 H         1 <0>         0.0619
     63 H28         4.9834   -2.4009   -0.7931 H         1 <0>         0.1026
     64 H29         6.8538   -0.2153    1.4409 H         1 <0>         0.0452
     65 H30         8.1125    0.2194    0.2354 H         1 <0>         0.0914
     66 H31         6.5046    1.5313   -1.0600 H         1 <0>         0.0939
     67 H32         6.3756    2.0442    0.6566 H         1 <0>         0.0828
     68 H33         8.6805   -1.8217   -0.4722 H         1 <0>         0.0932
     69 H34         7.6270   -2.6703    0.7096 H         1 <0>         0.0502
     70 H35         6.1297   -4.4348   -0.0161 H         1 <0>         0.1174
     71 H36         5.6701   -6.1870   -1.6840 H         1 <0>         0.1219
     72 H37         6.6944   -6.0579   -3.9195 H         1 <0>         0.1223
     73 H38         8.1710   -4.1718   -4.4901 H         1 <0>         0.1234
     74 H39         8.6232   -2.4148   -2.8254 H         1 <0>         0.1232
     75 H40        -2.1450    0.0912    0.6076 H         1 <0>         0.4557
@<TRIPOS>BOND
     1    1    2 1
     2    1   37 1
     3    1   38 1
     4    1   39 1
     5    2    3 1
     6    2   40 1
     7    2   41 1
     8    3    4 1
     9    4    5 2
    10    4    6 1
    11    6   10 2
    12    6    7 1
    13    7   29 1
    14    7    8 2
    15    8    9 1
    16    8   26 1
    17    9   10 1
    18   10   11 1
    19   11   12 am
    20   11   42 1
    21   12   13 2
    22   12   14 1
    23   14   15 1
    24   14   16 1
    25   14   17 1
    26   16   43 1
    27   16   44 1
    28   16   45 1
    29   17   18 1
    30   17   46 1
    31   17   75 1
    32   18   25 1
    33   18   19 1
    34   18   47 1
    35   19   20 1
    36   19   48 1
    37   19   49 1
    38   20   21 1
    39   20   50 1
    40   20   51 1
    41   21   22 1
    42   21   52 1
    43   21   53 1
    44   22   23 1
    45   22   54 1
    46   22   55 1
    47   23   24 1
    48   23   56 1
    49   23   57 1
    50   24   25 1
    51   24   58 1
    52   24   59 1
    53   25   60 1
    54   25   61 1
    55   26   27 1
    56   26   62 1
    57   26   63 1
    58   27   28 1
    59   27   30 1
    60   28   29 1
    61   28   64 1
    62   28   65 1
    63   29   66 1
    64   29   67 1
    65   30   31 1
    66   30   68 1
    67   30   69 1
    68   31   36 ar
    69   31   32 ar
    70   32   33 ar
    71   32   70 1
    72   33   34 ar
    73   33   71 1
    74   34   35 ar
    75   34   72 1
    76   35   36 ar
    77   35   73 1
    78   36   74 1
@<TRIPOS>MOLECULE
ZINC35664445
   70    72     0     0     0
SMALL
USER_CHARGES

@<TRIPOS>ATOM
      1 C1         -7.7242  -10.5258   -9.0577 C.3       1 <0>        -0.1531
      2 C2         -6.6310   -9.4584   -8.9766 C.3       1 <0>        -0.1335
      3 C3         -6.9894   -8.4431   -7.8896 C.3       1 <0>         0.1304
      4 N1         -5.9427   -7.4210   -7.8119 N.am      1 <0>        -0.7424
      5 C4         -6.0460   -6.4172   -6.9185 C.2       1 <0>         0.6999
      6 O1         -7.0490   -6.3081   -6.2400 O.2       1 <0>        -0.5607
      7 N2         -5.0375   -5.5344   -6.7773 N.am      1 <0>        -0.6376
      8 C5         -5.1246   -4.5190   -5.7083 C.3       1 <0>         0.1163
      9 C6         -3.7664   -4.3354   -5.0070 C.3       1 <0>        -0.1579
     10 C7         -3.1027   -5.6837   -4.8345 C.3       1 <0>        -0.0066
     11 N3         -2.2133   -5.9319   -5.9670 N.4       1 <0>        -0.3521
     12 C8         -2.8258   -6.5466   -7.0817 C.3       1 <0>        -0.0683
     13 C9         -3.9043   -5.6191   -7.6755 C.3       1 <0>         0.0944
     14 C10        -1.1116   -6.7904   -5.5117 C.3       1 <0>        -0.0249
     15 C11        -0.1042   -6.9458   -6.6216 C.2       1 <0>         0.1956
     16 C12        -0.1320   -8.0535   -7.3936 C.2       1 <0>        -0.2163
     17 C13         0.8988   -8.1694   -8.4981 C.3       1 <0>         0.2464
     18 H1          0.3674   -8.2789   -9.4435 H         1 <0>         0.1032
     19 N4          1.8528   -7.0566   -8.6398 N.am      1 <0>        -0.7049
     20 C14         1.7541   -6.0150   -7.7903 C.2       1 <0>         0.7028
     21 O2          2.5369   -5.0914   -7.8991 O.2       1 <0>        -0.5303
     22 N5          0.8184   -5.9617   -6.8340 N.am      1 <0>        -0.5343
     23 C15         0.7868   -4.7846   -5.9625 C.3       1 <0>         0.1357
     24 C16         1.7570   -4.9754   -4.8252 C.2       1 <0>        -0.2247
     25 C17         2.6820   -4.0766   -4.5955 C.2       1 <0>        -0.1107
     26 C18         1.6893   -9.4312   -8.2654 C.2       1 <0>        -0.1515
     27 C19         1.4062  -10.5786   -8.9824 C.2       1 <0>        -0.1302
     28 C20         2.1362  -11.6966   -8.7487 C.2       1 <0>        -0.1675
     29 S1          3.2655  -11.1422   -7.4821 S.3       1 <0>         0.0664
     30 C21         2.6921   -9.4564   -7.3537 C.2       1 <0>        -0.1593
     31 C22        -1.0905   -9.0713   -7.1780 C.2       1 <0>         0.5406
     32 O3         -1.9846   -8.9037   -6.3699 O.2       1 <0>        -0.5288
     33 O4         -1.0133  -10.2280   -7.8686 O.3       1 <0>        -0.3169
     34 C23        -2.0144  -11.2118   -7.6004 C.3       1 <0>         0.0610
     35 C24        -1.7642  -12.4447   -8.4712 C.3       1 <0>        -0.1566
     36 H2         -7.8065  -11.0353   -8.0976 H         1 <0>         0.0601
     37 H3         -8.6759  -10.0535   -9.3012 H         1 <0>         0.0618
     38 H4         -7.4689  -11.2492   -9.8321 H         1 <0>         0.0644
     39 H5         -5.6793   -9.9308   -8.7331 H         1 <0>         0.0654
     40 H6         -6.5487   -8.9490   -9.9367 H         1 <0>         0.0693
     41 H7         -7.9410   -7.9707   -8.1331 H         1 <0>         0.0737
     42 H8         -7.0717   -8.9525   -6.9295 H         1 <0>         0.0714
     43 H9         -5.1753   -7.4667   -8.4035 H         1 <0>         0.3921
     44 H10        -5.4344   -3.5684   -6.1423 H         1 <0>         0.0866
     45 H11        -5.8662   -4.8348   -4.9746 H         1 <0>         0.1117
     46 H12        -3.1288   -3.6913   -5.6126 H         1 <0>         0.0878
     47 H13        -3.9209   -3.8787   -4.0295 H         1 <0>         0.1311
     48 H14        -2.5251   -5.6895   -3.9101 H         1 <0>         0.1397
     49 H15        -3.8648   -6.4619   -4.7930 H         1 <0>         0.1394
     50 H16        -2.0704   -6.7553   -7.8392 H         1 <0>         0.1325
     51 H17        -3.2883   -7.4827   -6.7688 H         1 <0>         0.1583
     52 H18        -4.2318   -6.0192   -8.6351 H         1 <0>         0.1170
     53 H19        -3.4840   -4.6243   -7.8233 H         1 <0>         0.1036
     54 H20        -0.6308   -6.3356   -4.6456 H         1 <0>         0.1481
     55 H21        -1.5037   -7.7696   -5.2371 H         1 <0>         0.2088
     56 H22         2.5362   -7.0730   -9.3280 H         1 <0>         0.4420
     57 H23         1.0677   -3.9007   -6.5352 H         1 <0>         0.1211
     58 H24        -0.2193   -4.6545   -5.5638 H         1 <0>         0.0720
     59 H25         1.6898   -5.8531   -4.1995 H         1 <0>         0.1165
     60 H26         3.4271   -4.2511   -3.8334 H         1 <0>         0.1127
     61 H27         2.6995   -3.1612   -5.1683 H         1 <0>         0.1084
     62 H28         0.6151  -10.5842   -9.7176 H         1 <0>         0.1389
     63 H29         2.0553  -12.6702   -9.2091 H         1 <0>         0.1888
     64 H30         3.0505   -8.6628   -6.7148 H         1 <0>         0.1751
     65 H31        -1.9728  -11.4952   -6.5487 H         1 <0>         0.0738
     66 H32        -2.9980  -10.8004   -7.8272 H         1 <0>         0.0718
     67 H33        -1.8058  -12.1613   -9.5229 H         1 <0>         0.0697
     68 H34        -0.7806  -12.8561   -8.2444 H         1 <0>         0.0712
     69 H35        -2.5278  -13.1951   -8.2666 H         1 <0>         0.0857
     70 H36        -1.8229   -5.0503   -6.2643 H         1 <0>         0.4059
@<TRIPOS>BOND
     1    1    2 1
     2    1   36 1
     3    1   37 1
     4    1   38 1
     5    2    3 1
     6    2   39 1
     7    2   40 1
     8    3    4 1
     9    3   41 1
    10    3   42 1
    11    4    5 am
    12    4   43 1
    13    5    6 2
    14    5    7 am
    15    7   13 1
    16    7    8 1
    17    8    9 1
    18    8   44 1
    19    8   45 1
    20    9   10 1
    21    9   46 1
    22    9   47 1
    23   10   11 1
    24   10   48 1
    25   10   49 1
    26   11   12 1
    27   11   14 1
    28   11   70 1
    29   12   13 1
    30   12   50 1
    31   12   51 1
    32   13   52 1
    33   13   53 1
    34   14   15 1
    35   14   54 1
    36   14   55 1
    37   15   22 1
    38   15   16 2
    39   16   17 1
    40   16   31 1
    41   17   18 1
    42   17   19 1
    43   17   26 1
    44   19   20 am
    45   19   56 1
    46   20   21 2
    47   20   22 am
    48   22   23 1
    49   23   24 1
    50   23   57 1
    51   23   58 1
    52   24   25 2
    53   24   59 1
    54   25   60 1
    55   25   61 1
    56   26   30 2
    57   26   27 1
    58   27   28 2
    59   27   62 1
    60   28   29 1
    61   28   63 1
    62   29   30 1
    63   30   64 1
    64   31   32 2
    65   31   33 1
    66   33   34 1
    67   34   35 1
    68   34   65 1
    69   34   66 1
    70   35   67 1
    71   35   68 1
    72   35   69 1
@<TRIPOS>MOLECULE
ZINC39678324
   80    84     0     0     0
SMALL
USER_CHARGES

@<TRIPOS>ATOM
      1 C1          0.5164    1.5545   -0.1419 C.3       1 <0>        -0.1516
      2 C2          0.7408    0.1673   -0.7470 C.3       1 <0>        -0.1098
      3 C3          0.7663    0.2746   -2.2730 C.3       1 <0>        -0.0587
      4 H1         -0.1444    0.7641   -2.6181 H         1 <0>         0.1024
      5 C4          1.9640    1.0836   -2.6998 C.ar      1 <0>        -0.0747
      6 C5          3.2236    0.7497   -2.2384 C.ar      1 <0>        -0.0859
      7 C6          4.3222    1.4918   -2.6298 C.ar      1 <0>        -0.1216
      8 C7          4.1614    2.5674   -3.4830 C.ar      1 <0>        -0.1142
      9 C8          2.9019    2.9008   -3.9451 C.ar      1 <0>        -0.1215
     10 C9          1.8038    2.1561   -3.5571 C.ar      1 <0>        -0.1088
     11 C10         0.8529   -1.1054   -2.8723 C.2       1 <0>         0.5539
     12 O1          1.9112   -1.5157   -3.2995 O.2       1 <0>        -0.5217
     13 N1         -0.2458   -1.8836   -2.9335 N.am      1 <0>        -0.6183
     14 C11        -1.6353   -1.5239   -2.5648 C.3       1 <0>         0.1157
     15 C12        -2.5124   -2.1982   -3.6435 C.3       1 <0>        -0.1148
     16 H2         -3.4333   -2.5780   -3.2010 H         1 <0>         0.1147
     17 C13        -1.6559   -3.3590   -4.1764 C.3       1 <0>        -0.0709
     18 C14        -0.3383   -3.2908   -3.3909 C.3       1 <0>         0.1062
     19 C15        -1.3847   -3.1750   -5.6665 C.3       1 <0>        -0.1456
     20 C16        -0.5801   -4.3700   -6.1854 C.3       1 <0>        -0.0092
     21 N2         -1.3347   -5.6078   -5.9540 N.4       1 <0>        -0.5044
     22 C17        -1.5109   -5.8250   -4.5131 C.3       1 <0>        -0.0098
     23 C18        -2.3546   -4.6914   -3.9233 C.3       1 <0>        -0.1337
     24 C19        -2.8259   -1.2236   -4.7494 C.2       1 <0>         0.5156
     25 O2         -2.0422   -0.3376   -5.0171 O.2       1 <0>        -0.5176
     26 N3         -3.9772   -1.3366   -5.4409 N.am      1 <0>        -0.7184
     27 C20        -4.2290   -0.4656   -6.5916 C.3       1 <0>         0.1734
     28 C21        -5.6234   -0.7080   -7.1095 C.ar      1 <0>        -0.1286
     29 C22        -5.8207   -1.5167   -8.2117 C.ar      1 <0>        -0.0984
     30 C23        -7.0996   -1.7391   -8.6878 C.ar      1 <0>        -0.1256
     31 C24        -8.1853   -1.1536   -8.0623 C.ar      1 <0>        -0.0992
     32 C25        -7.9952   -0.3445   -6.9596 C.ar      1 <0>        -0.1257
     33 C26        -6.7119   -0.1231   -6.4755 C.ar      1 <0>         0.1953
     34 N4         -6.5164    0.6906   -5.3572 N.pl3     1 <0>        -0.6772
     35 C27        -6.3026    2.1360   -5.5113 C.3       1 <0>         0.1457
     36 C28        -7.3167    2.8804   -4.6370 C.3       1 <0>        -0.1379
     37 C29        -7.2065    2.3789   -3.1953 C.3       1 <0>        -0.1160
     38 C30        -7.5323    0.8844   -3.1470 C.3       1 <0>        -0.1392
     39 C31        -6.5267    0.1183   -4.0040 C.3       1 <0>         0.1537
     40 H3          1.3744    2.1899   -0.3616 H         1 <0>         0.0618
     41 H4         -0.3827    1.9969   -0.5708 H         1 <0>         0.0567
     42 H5          0.3977    1.4650    0.9379 H         1 <0>         0.0617
     43 H6          1.6915   -0.2332   -0.3950 H         1 <0>         0.0726
     44 H7         -0.0681   -0.4969   -0.4430 H         1 <0>         0.0666
     45 H8          3.3493   -0.0907   -1.5718 H         1 <0>         0.1181
     46 H9          5.3062    1.2313   -2.2688 H         1 <0>         0.1226
     47 H10         5.0196    3.1476   -3.7883 H         1 <0>         0.1228
     48 H11         2.7762    3.7414   -4.6114 H         1 <0>         0.1228
     49 H12         0.8203    2.4143   -3.9210 H         1 <0>         0.1191
     50 H13        -1.8798   -1.9150   -1.5772 H         1 <0>         0.0890
     51 H14        -1.7671   -0.4422   -2.5895 H         1 <0>         0.0969
     52 H15         0.5031   -3.5363   -4.0389 H         1 <0>         0.0872
     53 H16        -0.3718   -3.9671   -2.5367 H         1 <0>         0.0830
     54 H17        -2.3312   -3.1127   -6.2036 H         1 <0>         0.0947
     55 H18        -0.8162   -2.2582   -5.8224 H         1 <0>         0.1234
     56 H19        -0.3989   -4.2495   -7.2535 H         1 <0>         0.1378
     57 H20         0.3731   -4.4221   -5.6592 H         1 <0>         0.1342
     58 H21        -2.2393   -5.5360   -6.3951 H         1 <0>         0.4273
     59 H22        -2.0158   -6.7769   -4.3485 H         1 <0>         0.1397
     60 H23        -0.5356   -5.8427   -4.0266 H         1 <0>         0.1327
     61 H24        -2.4697   -4.8438   -2.8502 H         1 <0>         0.1215
     62 H25        -3.3360   -4.6835   -4.3976 H         1 <0>         0.0970
     63 H26        -4.6391   -1.9946   -5.1766 H         1 <0>         0.3982
     64 H27        -4.1305    0.5763   -6.2871 H         1 <0>         0.0835
     65 H28        -3.5064   -0.6843   -7.3778 H         1 <0>         0.0676
     66 H29        -4.9751   -1.9754   -8.7025 H         1 <0>         0.1198
     67 H30        -7.2511   -2.3713   -9.5503 H         1 <0>         0.1249
     68 H31        -9.1829   -1.3292   -8.4369 H         1 <0>         0.1262
     69 H32        -8.8434    0.1127   -6.4719 H         1 <0>         0.1248
     70 H33        -5.2910    2.3915   -5.1957 H         1 <0>         0.0507
     71 H34        -6.4440    2.4171   -6.5549 H         1 <0>         0.0682
     72 H35        -7.1074    3.9497   -4.6672 H         1 <0>         0.0698
     73 H36        -8.3239    2.6957   -5.0105 H         1 <0>         0.0643
     74 H37        -6.1922    2.5415   -2.8308 H         1 <0>         0.0603
     75 H38        -7.9099    2.9245   -2.5663 H         1 <0>         0.0627
     76 H39        -7.4764    0.5330   -2.1167 H         1 <0>         0.0676
     77 H40        -8.5374    0.7184   -3.5345 H         1 <0>         0.0642
     78 H41        -6.8159   -0.9315   -4.0534 H         1 <0>         0.0612
     79 H42        -5.5338    0.2055   -3.5628 H         1 <0>         0.0455
     80 H43        -0.8307   -6.3865   -6.3511 H         1 <0>         0.4339
@<TRIPOS>BOND
     1    1    2 1
     2    1   40 1
     3    1   41 1
     4    1   42 1
     5    2    3 1
     6    2   43 1
     7    2   44 1
     8    3    4 1
     9    3    5 1
    10    3   11 1
    11    5   10 ar
    12    5    6 ar
    13    6    7 ar
    14    6   45 1
    15    7    8 ar
    16    7   46 1
    17    8    9 ar
    18    8   47 1
    19    9   10 ar
    20    9   48 1
    21   10   49 1
    22   11   12 2
    23   11   13 am
    24   13   18 1
    25   13   14 1
    26   14   15 1
    27   14   50 1
    28   14   51 1
    29   15   16 1
    30   15   17 1
    31   15   24 1
    32   17   23 1
    33   17   18 1
    34   17   19 1
    35   18   52 1
    36   18   53 1
    37   19   20 1
    38   19   54 1
    39   19   55 1
    40   20   21 1
    41   20   56 1
    42   20   57 1
    43   21   22 1
    44   21   58 1
    45   21   80 1
    46   22   23 1
    47   22   59 1
    48   22   60 1
    49   23   61 1
    50   23   62 1
    51   24   25 2
    52   24   26 am
    53   26   27 1
    54   26   63 1
    55   27   28 1
    56   27   64 1
    57   27   65 1
    58   28   33 ar
    59   28   29 ar
    60   29   30 ar
    61   29   66 1
    62   30   31 ar
    63   30   67 1
    64   31   32 ar
    65   31   68 1
    66   32   33 ar
    67   32   69 1
    68   33   34 1
    69   34   39 1
    70   34   35 1
    71   35   36 1
    72   35   70 1
    73   35   71 1
    74   36   37 1
    75   36   72 1
    76   36   73 1
    77   37   38 1
    78   37   74 1
    79   37   75 1
    80   38   39 1
    81   38   76 1
    82   38   77 1
    83   39   78 1
    84   39   79 1
@<TRIPOS>MOLECULE
ZINC60044323
   69    72     0     0     0
SMALL
USER_CHARGES

@<TRIPOS>ATOM
      1 C1         -0.4070    0.6021    0.2682 C.ar      1 <0>        -0.0822
      2 C2          0.5196    1.3726    0.9454 C.ar      1 <0>        -0.1122
      3 C3          1.8571    1.0239    0.9228 C.ar      1 <0>        -0.0907
      4 C4          2.2679   -0.0954    0.2234 C.ar      1 <0>        -0.1625
      5 C5          1.3411   -0.8664   -0.4531 C.ar      1 <0>        -0.0964
      6 C6          0.0038   -0.5170   -0.4316 C.ar      1 <0>        -0.1137
      7 C7          3.7261   -0.4749    0.1979 C.3       1 <0>         0.0441
      8 N1          4.0180   -1.3732    1.3230 N.4       1 <0>        -0.3741
      9 C8          3.2852   -2.6340    1.1459 C.3       1 <0>        -0.0058
     10 C9          3.4610   -3.5053    2.3912 C.3       1 <0>        -0.1495
     11 C10         4.6855   -4.4334    2.3258 C.3       1 <0>        -0.1572
     12 C11         3.8056   -5.5106    2.9818 C.3       1 <0>        -0.1358
     13 C12         2.5954   -4.7763    2.3809 C.3       1 <0>        -0.1248
     14 C13         5.4604   -1.6475    1.3691 C.3       1 <0>        -0.0318
     15 C14         5.8674   -1.9600    2.7860 C.2       1 <0>         0.5036
     16 O1          5.0671   -1.8337    3.6887 O.2       1 <0>        -0.4996
     17 N2          7.1205   -2.3798    3.0503 N.am      1 <0>        -0.6483
     18 C15         7.4722   -2.7575    4.3509 C.ar      1 <0>         0.1012
     19 C16         8.3700   -3.7974    4.5548 C.ar      1 <0>        -0.0761
     20 C17         8.7150   -4.1678    5.8396 C.ar      1 <0>        -0.1158
     21 C18         8.1672   -3.5048    6.9227 C.ar      1 <0>        -0.0168
     22 C19         7.2728   -2.4695    6.7230 C.ar      1 <0>        -0.6237
     23 C20         6.9287   -2.0898    5.4402 C.ar      1 <0>        -0.0137
     24 S1          6.5772   -1.6284    8.1063 S.o2      1 <0>         2.6268
     25 O2          5.3528   -1.0600    7.6623 O.2       1 <0>        -0.9682
     26 O3          6.6457   -2.5273    9.2047 O.2       1 <0>        -0.9807
     27 N3          7.5831   -0.3632    8.4665 N.2       1 <0>        -0.9837
     28 C21         7.3025    0.4256    9.4521 C.2       1 <0>         0.5705
     29 C22         8.2253    1.5965    9.7821 C.3       1 <0>        -0.0871
     30 C23         7.4843    2.8671    9.4251 C.3       1 <0>        -0.1219
     31 C24         6.6209    3.4097   10.5655 C.3       1 <0>        -0.1226
     32 C25         5.8405    2.3178   11.2983 C.3       1 <0>        -0.1505
     33 C26         5.2208    1.2994   10.3663 C.3       1 <0>         0.1265
     34 N4          6.2160    0.2242   10.1713 N.pl3     1 <0>        -0.7973
     35 H1         -1.4525    0.8719    0.2896 H         1 <0>         0.1363
     36 H2          0.1987    2.2471    1.4918 H         1 <0>         0.1369
     37 H3          2.5812    1.6263    1.4513 H         1 <0>         0.1316
     38 H4          1.6621   -1.7407   -0.9998 H         1 <0>         0.1312
     39 H5         -0.7202   -1.1191   -0.9605 H         1 <0>         0.1365
     40 H6          3.9533   -0.9817   -0.7400 H         1 <0>         0.1389
     41 H7          4.3370    0.4238    0.2825 H         1 <0>         0.1388
     42 H8          2.2265   -2.4211    0.9979 H         1 <0>         0.1378
     43 H9          3.6749   -3.1615    0.2753 H         1 <0>         0.1294
     44 H10         3.3913   -2.9370    3.3187 H         1 <0>         0.1322
     45 H11         4.9927   -4.6799    1.3095 H         1 <0>         0.0872
     46 H12         5.5153   -4.1063    2.9523 H         1 <0>         0.0767
     47 H13         3.9586   -6.5088    2.5714 H         1 <0>         0.0793
     48 H14         3.8312   -5.4913    4.0713 H         1 <0>         0.0878
     49 H15         1.7379   -4.7261    3.0520 H         1 <0>         0.0817
     50 H16         2.3313   -5.1166    1.3797 H         1 <0>         0.0898
     51 H17         5.6888   -2.4998    0.7291 H         1 <0>         0.1616
     52 H18         6.0080   -0.7728    1.0183 H         1 <0>         0.1644
     53 H19         7.7786   -2.4202    2.3388 H         1 <0>         0.4218
     54 H20         8.7977   -4.3161    3.7095 H         1 <0>         0.1401
     55 H21         9.4131   -4.9763    5.9989 H         1 <0>         0.1466
     56 H22         8.4383   -3.7966    7.9266 H         1 <0>         0.1474
     57 H23         6.2340   -1.2777    5.2848 H         1 <0>         0.1537
     58 H24         8.4638    1.5925   10.8457 H         1 <0>         0.1058
     59 H25         9.1411    1.5238    9.1954 H         1 <0>         0.1087
     60 H26         8.2120    3.6288    9.1452 H         1 <0>         0.0821
     61 H27         6.8435    2.6680    8.5662 H         1 <0>         0.0636
     62 H28         7.2655    3.9201   11.2810 H         1 <0>         0.0715
     63 H29         5.9139    4.1318   10.1569 H         1 <0>         0.0689
     64 H30         6.5165    1.8023   11.9805 H         1 <0>         0.0752
     65 H31         5.0479    2.7859   11.8821 H         1 <0>         0.0796
     66 H32         4.3138    0.8911   10.8122 H         1 <0>         0.0987
     67 H33         4.9881    1.7651    9.4087 H         1 <0>         0.0819
     68 H34         6.0662   -0.6423   10.5807 H         1 <0>         0.4135
     69 H35         3.7311   -0.9357    2.1858 H         1 <0>         0.4329
@<TRIPOS>BOND
     1    1    6 ar
     2    1    2 ar
     3    1   35 1
     4    2    3 ar
     5    2   36 1
     6    3    4 ar
     7    3   37 1
     8    4    5 ar
     9    4    7 1
    10    5    6 ar
    11    5   38 1
    12    6   39 1
    13    7    8 1
    14    7   40 1
    15    7   41 1
    16    8    9 1
    17    8   14 1
    18    8   69 1
    19    9   10 1
    20    9   42 1
    21    9   43 1
    22   10   13 1
    23   10   11 1
    24   10   44 1
    25   11   12 1
    26   11   45 1
    27   11   46 1
    28   12   13 1
    29   12   47 1
    30   12   48 1
    31   13   49 1
    32   13   50 1
    33   14   15 1
    34   14   51 1
    35   14   52 1
    36   15   16 2
    37   15   17 am
    38   17   18 1
    39   17   53 1
    40   18   23 ar
    41   18   19 ar
    42   19   20 ar
    43   19   54 1
    44   20   21 ar
    45   20   55 1
    46   21   22 ar
    47   21   56 1
    48   22   23 ar
    49   22   24 1
    50   23   57 1
    51   24   25 2
    52   24   26 2
    53   24   27 1
    54   27   28 2
    55   28   34 1
    56   28   29 1
    57   29   30 1
    58   29   58 1
    59   29   59 1
    60   30   31 1
    61   30   60 1
    62   30   61 1
    63   31   32 1
    64   31   62 1
    65   31   63 1
    66   32   33 1
    67   32   64 1
    68   32   65 1
    69   33   34 1
    70   33   66 1
    71   33   67 1
    72   34   68 1
@<TRIPOS>MOLECULE
ZINC12489263
   50    51     0     0     0
SMALL
USER_CHARGES
N'-[2-(2-bromo-4-isopropyl-phenoxy)acetyl]-2-(4-bromo-2-methyl-phenoxy)acetohydrazide
@<TRIPOS>ATOM
      1 C1          6.6732   -8.8474   -0.0964 C.3       1 <0>        -0.1094
      2 C2          7.9658   -8.0728   -0.1114 C.ar      1 <0>        -0.1015
      3 C3          9.1735   -8.7436   -0.1319 C.ar      1 <0>        -0.0536
      4 C4         10.3603   -8.0331   -0.1394 C.ar      1 <0>        -0.1214
      5 C5         10.3407   -6.6496   -0.1322 C.ar      1 <0>        -0.0548
      6 C6          9.1354   -5.9752   -0.1171 C.ar      1 <0>        -0.2005
      7 C7          7.9439   -6.6860   -0.1095 C.ar      1 <0>         0.1403
      8 O1          6.7568   -6.0242   -0.0946 O.3       1 <0>        -0.2815
      9 C8          6.8102   -4.5962   -0.0875 C.3       1 <0>         0.0505
     10 C9          5.4092   -4.0412   -0.0712 C.2       1 <0>         0.5197
     11 O2          4.4586   -4.7944   -0.0661 O.2       1 <0>        -0.5091
     12 N1          5.2126   -2.7079   -0.0621 N.am      1 <0>        -0.5164
     13 N2          3.9102   -2.1919   -0.0470 N.am      1 <0>        -0.5177
     14 C10         3.7136   -0.8586   -0.0379 C.2       1 <0>         0.5187
     15 O3          4.6642   -0.1054   -0.0430 O.2       1 <0>        -0.5036
     16 C11         2.3126   -0.3036   -0.0216 C.3       1 <0>         0.0512
     17 O4          2.3660    1.1244   -0.0145 O.3       1 <0>        -0.2758
     18 C12         1.1789    1.7862    0.0004 C.ar      1 <0>         0.1483
     19 C13        -0.0126    1.0758    0.0080 C.ar      1 <0>        -0.2009
     20 C14        -1.2179    1.7507    0.0173 C.ar      1 <0>        -0.0582
     21 C15        -1.2378    3.1333    0.0297 C.ar      1 <0>        -0.1036
     22 C16        -0.0522    3.8442    0.0222 C.ar      1 <0>        -0.0499
     23 C17         1.1567    3.1739    0.0076 C.ar      1 <0>        -0.1174
     24 Br1         2.7783    4.1466   -0.0021 Br        1 <0>        -0.0293
     25 C18        -2.5543    3.8665    0.0462 C.3       1 <0>        -0.0538
     26 C19        -3.3627    3.4912   -1.1974 C.3       1 <0>        -0.1463
     27 C20        -3.3389    3.4778    1.3009 C.3       1 <0>        -0.1462
     28 Br2        12.0119   -8.9539   -0.1601 Br        1 <0>        -0.0466
     29 H1          6.3489   -9.0330   -1.1204 H         1 <0>         0.0738
     30 H2          6.8253   -9.7982    0.4145 H         1 <0>         0.0696
     31 H3          5.9105   -8.2714    0.4275 H         1 <0>         0.0767
     32 H4          9.1910   -9.8235   -0.1375 H         1 <0>         0.1418
     33 H5         11.2684   -6.0967   -0.1381 H         1 <0>         0.1377
     34 H6          9.1205   -4.8953   -0.1107 H         1 <0>         0.1385
     35 H7          7.3287   -4.2475   -0.9806 H         1 <0>         0.1047
     36 H8          7.3457   -4.2570    0.7992 H         1 <0>         0.1046
     37 H9          5.9729   -2.1055   -0.0662 H         1 <0>         0.4361
     38 H10         3.1499   -2.7943   -0.0429 H         1 <0>         0.4355
     39 H11         1.7941   -0.6523    0.8715 H         1 <0>         0.1044
     40 H12         1.7771   -0.6428   -0.9084 H         1 <0>         0.1044
     41 H13         0.0021   -0.0041    0.0020 H         1 <0>         0.1373
     42 H14        -2.1457    1.1978    0.0187 H         1 <0>         0.1333
     43 H15        -0.0704    4.9241    0.0275 H         1 <0>         0.1401
     44 H16        -2.3717    4.9411    0.0502 H         1 <0>         0.0807
     45 H17        -3.5453    2.4166   -1.2014 H         1 <0>         0.0568
     46 H18        -4.3149    4.0215   -1.1855 H         1 <0>         0.0609
     47 H19        -2.8038    3.7681   -2.0913 H         1 <0>         0.0572
     48 H20        -2.7630    3.7452    2.1869 H         1 <0>         0.0572
     49 H21        -4.2911    4.0081    1.3129 H         1 <0>         0.0608
     50 H22        -3.5215    2.4032    1.2969 H         1 <0>         0.0567
@<TRIPOS>BOND
     1    1    2 1
     2    1   29 1
     3    1   30 1
     4    1   31 1
     5    2    7 ar
     6    2    3 ar
     7    3    4 ar
     8    3   32 1
     9    4    5 ar
    10    4   28 1
    11    5    6 ar
    12    5   33 1
    13    6    7 ar
    14    6   34 1
    15    7    8 1
    16    8    9 1
    17    9   10 1
    18    9   35 1
    19    9   36 1
    20   10   11 2
    21   10   12 am
    22   12   13 1
    23   12   37 1
    24   13   14 am
    25   13   38 1
    26   14   15 2
    27   14   16 1
    28   16   17 1
    29   16   39 1
    30   16   40 1
    31   17   18 1
    32   18   23 ar
    33   18   19 ar
    34   19   20 ar
    35   19   41 1
    36   20   21 ar
    37   20   42 1
    38   21   22 ar
    39   21   25 1
    40   22   23 ar
    41   22   43 1
    42   23   24 1
    43   25   26 1
    44   25   27 1
    45   25   44 1
    46   26   45 1
    47   26   46 1
    48   26   47 1
    49   27   48 1
    50   27   49 1
    51   27   50 1
@<TRIPOS>MOLECULE
ZINC14667004
   50    51     0     0     0
SMALL
USER_CHARGES
5-bromo-N'-[2-(4-bromo-2-methyl-phenoxy)acetyl]-2-isobutoxy-benzohydrazide
@<TRIPOS>ATOM
      1 C1          4.0049   12.3202    0.0134 C.3       1 <0>        -0.1096
      2 C2          5.4086   11.7718    0.0038 C.ar      1 <0>        -0.1016
      3 C3          6.4878   12.6344    0.0030 C.ar      1 <0>        -0.0536
      4 C4          7.7763   12.1316   -0.0121 C.ar      1 <0>        -0.1219
      5 C5          7.9873   10.7641   -0.0206 C.ar      1 <0>        -0.0549
      6 C6          6.9112    9.8983   -0.0146 C.ar      1 <0>        -0.2007
      7 C7          5.6179   10.4006    0.0005 C.ar      1 <0>         0.1409
      8 O1          4.5576    9.5503    0.0066 O.3       1 <0>        -0.2810
      9 C8          4.8480    8.1512   -0.0033 C.3       1 <0>         0.0508
     10 C9          3.5590    7.3705    0.0053 C.2       1 <0>         0.5176
     11 O2          2.4963    7.9548    0.0186 O.2       1 <0>        -0.5100
     12 N1          3.5871    6.0231   -0.0017 N.am      1 <0>        -0.5158
     13 N2          2.3888    5.2974    0.0063 N.am      1 <0>        -0.5210
     14 C10         2.4169    3.9499   -0.0008 C.2       1 <0>         0.5690
     15 O3          3.4823    3.3641   -0.0141 O.2       1 <0>        -0.5089
     16 C11         1.1550    3.1857    0.0077 C.ar      1 <0>        -0.1659
     17 C12        -0.0714    3.8547    0.0225 C.ar      1 <0>        -0.0161
     18 C13        -1.2471    3.1346    0.0299 C.ar      1 <0>        -0.1402
     19 C14        -1.2179    1.7487    0.0173 C.ar      1 <0>        -0.0145
     20 C15        -0.0126    1.0758    0.0080 C.ar      1 <0>        -0.2129
     21 C16         1.1797    1.7846    0.0004 C.ar      1 <0>         0.2127
     22 O4          2.3647    1.1242   -0.0145 O.3       1 <0>        -0.2715
     23 C17         2.3115   -0.3037   -0.0216 C.3       1 <0>         0.0526
     24 C18         3.7340   -0.8669   -0.0382 C.3       1 <0>        -0.0919
     25 C19         4.4451   -0.4949    1.2644 C.3       1 <0>        -0.1487
     26 C20         3.6780   -2.3901   -0.1716 C.3       1 <0>        -0.1475
     27 Br1        -2.9064    4.0413    0.0500 Br        1 <0>        -0.0349
     28 Br2         9.2515   13.3146   -0.0205 Br        1 <0>        -0.0473
     29 H1          3.6730   12.4510    1.0433 H         1 <0>         0.0738
     30 H2          3.9872   13.2821   -0.4990 H         1 <0>         0.0694
     31 H3          3.3394   11.6242   -0.4972 H         1 <0>         0.0770
     32 H4          6.3253   13.7021    0.0096 H         1 <0>         0.1416
     33 H5          8.9941   10.3735   -0.0324 H         1 <0>         0.1374
     34 H6          7.0763    8.8310   -0.0219 H         1 <0>         0.1384
     35 H7          5.4336    7.8954    0.8798 H         1 <0>         0.1040
     36 H8          5.4163    7.9044   -0.9001 H         1 <0>         0.1039
     37 H9          4.4371    5.5558   -0.0123 H         1 <0>         0.4351
     38 H10         1.5388    5.7647    0.0169 H         1 <0>         0.4313
     39 H11        -0.0984    4.9344    0.0279 H         1 <0>         0.1428
     40 H12        -2.1435    1.1922    0.0190 H         1 <0>         0.1445
     41 H13         0.0021   -0.0041    0.0020 H         1 <0>         0.1479
     42 H14         1.7931   -0.6525    0.8715 H         1 <0>         0.0680
     43 H15         1.7761   -0.6430   -0.9084 H         1 <0>         0.0675
     44 H16         4.2808   -0.4481   -0.8831 H         1 <0>         0.0837
     45 H17         5.4585   -0.8961    1.2526 H         1 <0>         0.0576
     46 H18         4.4850    0.5902    1.3594 H         1 <0>         0.0667
     47 H19         3.8983   -0.9137    2.1092 H         1 <0>         0.0526
     48 H20         3.1714   -2.6552   -1.0996 H         1 <0>         0.0581
     49 H21         4.6914   -2.7913   -0.1835 H         1 <0>         0.0668
     50 H22         3.1312   -2.8089    0.6732 H         1 <0>         0.0584
@<TRIPOS>BOND
     1    1    2 1
     2    1   29 1
     3    1   30 1
     4    1   31 1
     5    2    7 ar
     6    2    3 ar
     7    3    4 ar
     8    3   32 1
     9    4    5 ar
    10    4   28 1
    11    5    6 ar
    12    5   33 1
    13    6    7 ar
    14    6   34 1
    15    7    8 1
    16    8    9 1
    17    9   10 1
    18    9   35 1
    19    9   36 1
    20   10   11 2
    21   10   12 am
    22   12   13 1
    23   12   37 1
    24   13   14 am
    25   13   38 1
    26   14   15 2
    27   14   16 1
    28   16   21 ar
    29   16   17 ar
    30   17   18 ar
    31   17   39 1
    32   18   19 ar
    33   18   27 1
    34   19   20 ar
    35   19   40 1
    36   20   21 ar
    37   20   41 1
    38   21   22 1
    39   22   23 1
    40   23   24 1
    41   23   42 1
    42   23   43 1
    43   24   25 1
    44   24   26 1
    45   24   44 1
    46   25   45 1
    47   25   46 1
    48   25   47 1
    49   26   48 1
    50   26   49 1
    51   26   50 1
@<TRIPOS>MOLECULE
ZINC30825978
   62    65     0     0     0
SMALL
USER_CHARGES
N-[[3-chloro-2-[4-(4-methylbenzoyl)piperazin-1-yl]phenyl]carbamothioyl]-3-methyl-benzamide
@<TRIPOS>ATOM
      1 C1         -3.5042    2.9512    7.4948 C.3       1 <0>        -0.1242
      2 C2         -2.9503    2.2085    6.3062 C.ar      1 <0>        -0.0583
      3 C3         -3.1488    0.8439    6.1932 C.ar      1 <0>        -0.1256
      4 C4         -2.6444    0.1580    5.1077 C.ar      1 <0>        -0.0574
      5 C5         -1.9328    0.8437    4.1220 C.ar      1 <0>        -0.1401
      6 C6         -1.7320    2.2195    4.2446 C.ar      1 <0>        -0.1019
      7 C7         -2.2459    2.8943    5.3327 C.ar      1 <0>        -0.1281
      8 C8         -1.3890    0.1150    2.9563 C.2       1 <0>         0.5630
      9 O1         -1.9590   -0.8736    2.5376 O.2       1 <0>        -0.5336
     10 N1         -0.2612    0.5468    2.3578 N.am      1 <0>        -0.6069
     11 C9          0.2933   -0.1596    1.1930 C.3       1 <0>         0.1192
     12 C10         1.7756   -0.4446    1.4569 C.3       1 <0>         0.0186
     13 N2          2.4575    0.8089    1.8057 N.pl3     1 <0>        -0.4968
     14 C11         1.9236    1.3775    3.0505 C.3       1 <0>         0.0311
     15 C12         0.4473    1.7372    2.8519 C.3       1 <0>         0.0832
     16 C13         3.8418    0.6193    1.8939 C.ar      1 <0>         0.0899
     17 C14         4.7017    1.3522    1.0764 C.ar      1 <0>         0.1647
     18 C15         6.0718    1.1600    1.1690 C.ar      1 <0>        -0.0657
     19 C16         6.5825    0.2437    2.0696 C.ar      1 <0>        -0.0999
     20 C17         5.7310   -0.4836    2.8802 C.ar      1 <0>        -0.0943
     21 C18         4.3628   -0.2942    2.7992 C.ar      1 <0>        -0.0661
     22 Cl1         3.2979   -1.2047    3.8242 Cl        1 <0>        -0.0527
     23 N3          4.1824    2.2798    0.1634 N.pl3     1 <0>        -0.6160
     24 C19         4.8116    3.4552   -0.0345 C.2       1 <0>         0.5235
     25 S1          6.1955    3.8519    0.8920 S.2       1 <0>        -0.5059
     26 N4          4.3513    4.3182   -0.9617 N.am      1 <0>        -0.6520
     27 C20         4.9805    5.4935   -1.1596 C.2       1 <0>         0.5379
     28 O2          5.9629    5.7752   -0.5020 O.2       1 <0>        -0.4034
     29 C21         4.4759    6.4398   -2.1763 C.ar      1 <0>        -0.1313
     30 C22         3.3508    6.1168   -2.9377 C.ar      1 <0>        -0.0964
     31 C23         2.8823    7.0066   -3.8817 C.ar      1 <0>        -0.1190
     32 C24         3.5307    8.2126   -4.0823 C.ar      1 <0>        -0.0908
     33 C25         4.6490    8.5366   -3.3350 C.ar      1 <0>        -0.0867
     34 C26         5.1252    7.6580   -2.3838 C.ar      1 <0>        -0.0558
     35 C27         5.3489    9.8520   -3.5608 C.3       1 <0>        -0.1218
     36 H1         -4.0290    2.2458    8.1559 H         1 <0>         0.0693
     37 H2         -4.2079    3.7229    7.1495 H         1 <0>         0.0752
     38 H3         -2.6800    3.4269    8.0465 H         1 <0>         0.0752
     39 H4         -3.6995    0.3144    6.9566 H         1 <0>         0.1307
     40 H5         -2.8000   -0.9072    5.0206 H         1 <0>         0.1328
     41 H6         -1.1785    2.7552    3.4876 H         1 <0>         0.1443
     42 H7         -2.0944    3.9594    5.4269 H         1 <0>         0.1303
     43 H8         -0.2499   -1.1046    1.0445 H         1 <0>         0.1013
     44 H9          0.1859    0.4697    0.2972 H         1 <0>         0.0745
     45 H10         1.8693   -1.1581    2.2888 H         1 <0>         0.0716
     46 H11         2.2332   -0.8731    0.5530 H         1 <0>         0.0899
     47 H12         2.0165    0.6390    3.8604 H         1 <0>         0.0648
     48 H13         2.4907    2.2828    3.3130 H         1 <0>         0.0903
     49 H14         0.3548    2.5503    2.1169 H         1 <0>         0.0791
     50 H15         0.0067    2.0555    3.8082 H         1 <0>         0.1210
     51 H16         6.7402    1.7261    0.5372 H         1 <0>         0.1574
     52 H17         7.6500    0.0954    2.1399 H         1 <0>         0.1410
     53 H18         6.1350   -1.1984    3.5818 H         1 <0>         0.1365
     54 H19         3.2613    2.0486   -0.3917 H         1 <0>         0.4376
     55 H20         3.4621    4.0633   -1.5569 H         1 <0>         0.4322
     56 H21         2.8463    5.1742   -2.7850 H         1 <0>         0.1215
     57 H22         2.0100    6.7597   -4.4687 H         1 <0>         0.1320
     58 H23         3.1623    8.9039   -4.8259 H         1 <0>         0.1303
     59 H24         5.9980    7.9122   -1.8009 H         1 <0>         0.1398
     60 H25         6.2092    9.9312   -2.8799 H         1 <0>         0.0712
     61 H26         4.6492   10.6779   -3.3652 H         1 <0>         0.0748
     62 H27         5.6991    9.9070   -4.6021 H         1 <0>         0.0749
@<TRIPOS>BOND
     1    1    2 1
     2    1   36 1
     3    1   37 1
     4    1   38 1
     5    2    7 ar
     6    2    3 ar
     7    3    4 ar
     8    3   39 1
     9    4    5 ar
    10    4   40 1
    11    5    6 ar
    12    5    8 1
    13    6    7 ar
    14    6   41 1
    15    7   42 1
    16    8    9 2
    17    8   10 am
    18   10   15 1
    19   10   11 1
    20   11   12 1
    21   11   43 1
    22   11   44 1
    23   12   13 1
    24   12   45 1
    25   12   46 1
    26   13   14 1
    27   13   16 1
    28   14   15 1
    29   14   47 1
    30   14   48 1
    31   15   49 1
    32   15   50 1
    33   16   21 ar
    34   16   17 ar
    35   17   18 ar
    36   17   23 1
    37   18   19 ar
    38   18   51 1
    39   19   20 ar
    40   19   52 1
    41   20   21 ar
    42   20   53 1
    43   21   22 1
    44   23   24 1
    45   23   54 1
    46   24   25 2
    47   24   26 1
    48   26   27 am
    49   26   55 1
    50   27   28 2
    51   27   29 1
    52   29   34 ar
    53   29   30 ar
    54   30   31 ar
    55   30   56 1
    56   31   32 ar
    57   31   57 1
    58   32   33 ar
    59   32   58 1
    60   33   34 ar
    61   33   35 1
    62   34   59 1
    63   35   60 1
    64   35   61 1
    65   35   62 1
@<TRIPOS>MOLECULE
ZINC36536957
   70    71     0     0     0
SMALL
USER_CHARGES

@<TRIPOS>ATOM
      1 C1          1.0507   -1.0736   -4.4931 C.3       1 <0>        -0.1608
      2 C2          0.5927   -0.1191   -3.3886 C.3       1 <0>        -0.0681
      3 C3          1.2420    1.2506   -3.5965 C.3       1 <0>        -0.1706
      4 C4         -0.9297    0.0254   -3.4382 C.3       1 <0>        -0.1422
      5 C5          1.0077   -0.6787   -2.0264 C.3       1 <0>        -0.1160
      6 C6          2.4763   -0.3408   -1.7622 C.3       1 <0>         0.1780
      7 C7          2.5976    1.1324   -1.3675 C.3       1 <0>        -0.2109
      8 C8          3.0052   -1.2184   -0.6260 C.3       1 <0>        -0.1620
      9 N1          3.2601   -0.5875   -2.9751 N.am      1 <0>        -0.7186
     10 C9          4.5621   -0.2422   -3.0179 C.2       1 <0>         0.5070
     11 O1          5.0850    0.2728   -2.0524 O.2       1 <0>        -0.5161
     12 C10         5.3683   -0.4960   -4.2656 C.3       1 <0>         0.1586
     13 H1          5.3717   -1.5636   -4.4851 H         1 <0>         0.1366
     14 C11         4.7550    0.2525   -5.4209 C.ar      1 <0>        -0.0768
     15 C12         4.2352    1.5185   -5.2263 C.ar      1 <0>        -0.1025
     16 C13         3.6726    2.2051   -6.2860 C.ar      1 <0>        -0.0652
     17 C14         3.6302    1.6258   -7.5404 C.ar      1 <0>        -0.1692
     18 C15         4.1508    0.3601   -7.7352 C.ar      1 <0>        -0.0665
     19 C16         4.7172   -0.3247   -6.6764 C.ar      1 <0>        -0.0941
     20 C17         3.0159    2.3739   -8.6955 C.3       1 <0>         0.5067
     21 F1          4.0011    3.1328   -9.3363 F         1 <0>        -0.1741
     22 F2          2.4666    1.4615   -9.6027 F         1 <0>        -0.1750
     23 F3          2.0099    3.2217   -8.2198 F         1 <0>        -0.1750
     24 N2          6.7438   -0.0353   -4.0604 N.am      1 <0>        -0.5838
     25 C18         6.9998    1.3490   -3.6547 C.3       1 <0>         0.0708
     26 C19         7.7736   -0.8849   -4.2448 C.2       1 <0>         0.5189
     27 O2          7.5617   -2.0309   -4.5807 O.2       1 <0>        -0.5352
     28 C20         9.1885   -0.4110   -4.0337 C.3       1 <0>         0.1052
     29 N3         10.1170   -1.5137   -4.2953 N.am      1 <0>        -0.7173
     30 C21        11.4448   -1.3210   -4.1685 C.2       1 <0>         0.5640
     31 O3         11.8721   -0.2323   -3.8371 O.2       1 <0>        -0.5339
     32 C22        12.3818   -2.4337   -4.4324 C.ar      1 <0>        -0.1378
     33 C23        11.8948   -3.6834   -4.8187 C.ar      1 <0>        -0.0848
     34 C24        12.7745   -4.7174   -5.0639 C.ar      1 <0>        -0.1272
     35 C25        14.1368   -4.5178   -4.9273 C.ar      1 <0>        -0.0912
     36 C26        14.6261   -3.2816   -4.5443 C.ar      1 <0>        -0.1278
     37 C27        13.7575   -2.2375   -4.3020 C.ar      1 <0>        -0.0579
     38 H2          1.9547   -0.6823   -4.9597 H         1 <0>         0.0594
     39 H3          1.2585   -2.0535   -4.0634 H         1 <0>         0.0615
     40 H4          0.2651   -1.1650   -5.2432 H         1 <0>         0.0674
     41 H5          1.1189    1.5571   -4.6353 H         1 <0>         0.0508
     42 H6          0.7656    1.9815   -2.9431 H         1 <0>         0.0619
     43 H7          2.3041    1.1889   -3.3593 H         1 <0>         0.0886
     44 H8         -1.3923   -0.9504   -3.2901 H         1 <0>         0.0561
     45 H9         -1.2560    0.7054   -2.6513 H         1 <0>         0.0562
     46 H10        -1.2253    0.4241   -4.4086 H         1 <0>         0.0570
     47 H11         0.3871   -0.2360   -1.2473 H         1 <0>         0.0824
     48 H12         0.8777   -1.7610   -2.0233 H         1 <0>         0.0712
     49 H13         2.2848    1.2578   -0.3309 H         1 <0>         0.0589
     50 H14         3.6336    1.4535   -1.4757 H         1 <0>         0.0846
     51 H15         1.9608    1.7356   -2.0146 H         1 <0>         0.0936
     52 H16         3.0028   -2.2618   -0.9415 H         1 <0>         0.0541
     53 H17         4.0225   -0.9165   -0.3770 H         1 <0>         0.0720
     54 H18         2.3670   -1.1023    0.2500 H         1 <0>         0.0649
     55 H19         2.8419   -0.9994   -3.7474 H         1 <0>         0.4056
     56 H20         4.2683    1.9711   -4.2463 H         1 <0>         0.1363
     57 H21         3.2659    3.1939   -6.1339 H         1 <0>         0.1409
     58 H22         4.1173   -0.0926   -8.7152 H         1 <0>         0.1418
     59 H23         5.1273   -1.3120   -6.8294 H         1 <0>         0.1409
     60 H24         7.1031    1.3967   -2.5707 H         1 <0>         0.0799
     61 H25         7.9190    1.7008   -4.1231 H         1 <0>         0.0742
     62 H26         6.1678    1.9793   -3.9685 H         1 <0>         0.0766
     63 H27         9.4013    0.4126   -4.7152 H         1 <0>         0.1046
     64 H28         9.3083   -0.0715   -3.0049 H         1 <0>         0.1062
     65 H29         9.7760   -2.3824   -4.5597 H         1 <0>         0.4117
     66 H30        10.8316   -3.8407   -4.9250 H         1 <0>         0.1272
     67 H31        12.3990   -5.6849   -5.3629 H         1 <0>         0.1305
     68 H32        14.8213   -5.3307   -5.1201 H         1 <0>         0.1288
     69 H33        15.6906   -3.1325   -4.4391 H         1 <0>         0.1316
     70 H34        14.1410   -1.2717   -4.0078 H         1 <0>         0.1372
@<TRIPOS>BOND
     1    1    2 1
     2    1   38 1
     3    1   39 1
     4    1   40 1
     5    2    3 1
     6    2    4 1
     7    2    5 1
     8    3   41 1
     9    3   42 1
    10    3   43 1
    11    4   44 1
    12    4   45 1
    13    4   46 1
    14    5    6 1
    15    5   47 1
    16    5   48 1
    17    6    7 1
    18    6    8 1
    19    6    9 1
    20    7   49 1
    21    7   50 1
    22    7   51 1
    23    8   52 1
    24    8   53 1
    25    8   54 1
    26    9   10 am
    27    9   55 1
    28   10   11 2
    29   10   12 1
    30   12   13 1
    31   12   14 1
    32   12   24 1
    33   14   19 ar
    34   14   15 ar
    35   15   16 ar
    36   15   56 1
    37   16   17 ar
    38   16   57 1
    39   17   18 ar
    40   17   20 1
    41   18   19 ar
    42   18   58 1
    43   19   59 1
    44   20   21 1
    45   20   22 1
    46   20   23 1
    47   24   25 1
    48   24   26 am
    49   25   60 1
    50   25   61 1
    51   25   62 1
    52   26   27 2
    53   26   28 1
    54   28   29 1
    55   28   63 1
    56   28   64 1
    57   29   30 am
    58   29   65 1
    59   30   31 2
    60   30   32 1
    61   32   37 ar
    62   32   33 ar
    63   33   34 ar
    64   33   66 1
    65   34   35 ar
    66   34   67 1
    67   35   36 ar
    68   35   68 1
    69   36   37 ar
    70   36   69 1
    71   37   70 1
@<TRIPOS>MOLECULE
ZINC58890022
   60    62     0     0     0
SMALL
USER_CHARGES

@<TRIPOS>ATOM
      1 C1         -2.0970    1.5448    0.9807 C.3       1 <0>        -0.1155
      2 C2         -2.4100    0.0913    1.2265 C.ar      1 <0>        -0.0902
      3 C3         -3.1860   -0.6111    0.3232 C.ar      1 <0>        -0.1102
      4 C4         -3.4730   -1.9442    0.5487 C.ar      1 <0>        -0.1194
      5 C5         -2.9838   -2.5754    1.6773 C.ar      1 <0>        -0.0984
      6 C6         -2.2073   -1.8735    2.5798 C.ar      1 <0>        -0.0887
      7 C7         -1.9166   -0.5411    2.3521 C.ar      1 <0>        -0.0933
      8 C8         -1.6745   -2.5613    3.8103 C.3       1 <0>         0.1092
      9 O1         -0.3973   -3.1331    3.5209 O.3       1 <0>        -0.3057
     10 C9          0.2259   -3.7952    4.5316 C.ar      1 <0>         0.1059
     11 C10         1.0768   -3.1061    5.3931 C.ar      1 <0>         0.1255
     12 C11         1.7114   -3.7771    6.4213 C.ar      1 <0>        -0.1559
     13 C12         1.4974   -5.1473    6.5944 C.ar      1 <0>        -0.0609
     14 C13         0.6431   -5.8324    5.7273 C.ar      1 <0>        -0.1266
     15 C14         0.0085   -5.1546    4.7063 C.ar      1 <0>        -0.0716
     16 Br1        -1.1543   -6.0817    3.5383 Br        1 <0>        -0.0133
     17 C15         2.1722   -5.8680    7.6893 C.2       1 <0>         0.1083
     18 N1          2.2120   -7.1652    7.6847 N.2       1 <0>        -0.2141
     19 N2          2.1283   -7.8643    6.4734 N.am      1 <0>        -0.5870
     20 C16         2.0367   -9.2090    6.4764 C.2       1 <0>         0.5244
     21 O2          2.0267   -9.8140    7.5278 O.2       1 <0>        -0.4976
     22 C17         1.9467   -9.9609    5.1735 C.3       1 <0>        -0.1347
     23 C18         1.8528  -11.4616    5.4562 C.3       1 <0>        -0.1305
     24 C19         1.7614  -12.2251    4.1334 C.3       1 <0>         0.1482
     25 H1          2.6051  -11.9544    3.4987 H         1 <0>         0.1106
     26 C20         1.7926  -13.7070    4.4055 C.ar      1 <0>        -0.1171
     27 C21         0.6241  -14.3777    4.7145 C.ar      1 <0>        -0.1117
     28 C22         0.6527  -15.7371    4.9641 C.ar      1 <0>        -0.1161
     29 C23         1.8498  -16.4257    4.9043 C.ar      1 <0>        -0.1191
     30 C24         3.0183  -15.7551    4.5944 C.ar      1 <0>        -0.1169
     31 C25         2.9889  -14.3966    4.3406 C.ar      1 <0>        -0.1102
     32 O3          0.5403  -11.8878    3.4722 O.3       1 <0>        -0.5534
     33 O4          1.2835   -1.7729    5.2219 O.3       1 <0>        -0.2980
     34 C26         2.1683   -1.1301    6.1417 C.3       1 <0>         0.0201
     35 H2         -1.1781    1.6254    0.4001 H         1 <0>         0.0715
     36 H3         -2.9169    2.0047    0.4290 H         1 <0>         0.0672
     37 H4         -1.9698    2.0555    1.9352 H         1 <0>         0.0666
     38 H5         -3.5681   -0.1181   -0.5584 H         1 <0>         0.1234
     39 H6         -4.0798   -2.4927   -0.1566 H         1 <0>         0.1249
     40 H7         -3.2087   -3.6169    1.8538 H         1 <0>         0.1226
     41 H8         -1.3068    0.0064    3.0555 H         1 <0>         0.1237
     42 H9         -1.5732   -1.8356    4.6172 H         1 <0>         0.0655
     43 H10        -2.3646   -3.3485    4.1141 H         1 <0>         0.0648
     44 H11         2.3715   -3.2438    7.0894 H         1 <0>         0.1505
     45 H12         0.4761   -6.8913    5.8583 H         1 <0>         0.1461
     46 H13         2.6334   -5.3165    8.4952 H         1 <0>         0.1920
     47 H14         2.1363   -7.3806    5.6327 H         1 <0>         0.3949
     48 H15         1.0601   -9.6378    4.6280 H         1 <0>         0.1069
     49 H16         2.8351   -9.7588    4.5752 H         1 <0>         0.1015
     50 H17         2.7394  -11.7848    6.0017 H         1 <0>         0.0855
     51 H18         0.9644  -11.6637    6.0545 H         1 <0>         0.0784
     52 H19        -0.3112  -13.8397    4.7612 H         1 <0>         0.1198
     53 H20        -0.2601  -16.2610    5.2062 H         1 <0>         0.1237
     54 H21         1.8723  -17.4876    5.1000 H         1 <0>         0.1230
     55 H22         3.9536  -16.2931    4.5480 H         1 <0>         0.1241
     56 H23         3.9012  -13.8733    4.0949 H         1 <0>         0.1236
     57 H24        -0.2541  -12.1014    3.9804 H         1 <0>         0.3749
     58 H25         1.7809   -1.2387    7.1547 H         1 <0>         0.0606
     59 H26         3.1546   -1.5898    6.0786 H         1 <0>         0.0610
     60 H27         2.2443   -0.0715    5.8933 H         1 <0>         0.1072
@<TRIPOS>BOND
     1    1    2 1
     2    1   35 1
     3    1   36 1
     4    1   37 1
     5    2    7 ar
     6    2    3 ar
     7    3    4 ar
     8    3   38 1
     9    4    5 ar
    10    4   39 1
    11    5    6 ar
    12    5   40 1
    13    6    7 ar
    14    6    8 1
    15    7   41 1
    16    8    9 1
    17    8   42 1
    18    8   43 1
    19    9   10 1
    20   10   15 ar
    21   10   11 ar
    22   11   12 ar
    23   11   33 1
    24   12   13 ar
    25   12   44 1
    26   13   14 ar
    27   13   17 1
    28   14   15 ar
    29   14   45 1
    30   15   16 1
    31   17   18 2
    32   17   46 1
    33   18   19 1
    34   19   20 am
    35   19   47 1
    36   20   21 2
    37   20   22 1
    38   22   23 1
    39   22   48 1
    40   22   49 1
    41   23   24 1
    42   23   50 1
    43   23   51 1
    44   24   25 1
    45   24   26 1
    46   24   32 1
    47   26   31 ar
    48   26   27 ar
    49   27   28 ar
    50   27   52 1
    51   28   29 ar
    52   28   53 1
    53   29   30 ar
    54   29   54 1
    55   30   31 ar
    56   30   55 1
    57   31   56 1
    58   32   57 1
    59   33   34 1
    60   34   58 1
    61   34   59 1
    62   34   60 1
@<TRIPOS>MOLECULE
ZINC10010863
   57    59     0     0     0
SMALL
USER_CHARGES
N-[[4-[(3,4-dimethylphenyl)sulfamoyl]phenyl]thiocarbamoyl]-3-(3-nitrophenyl)-prop-2-enamide
@<TRIPOS>ATOM
      1 C1          1.5304   14.8841    4.3087 C.3       1 <0>        -0.1216
      2 C2          0.3054   15.3253    3.5498 C.ar      1 <0>        -0.0767
      3 C3         -0.9091   14.7047    3.7793 C.ar      1 <0>        -0.1118
      4 C4         -2.0347   15.1104    3.0898 C.ar      1 <0>        -0.1129
      5 C5         -1.9438   16.1358    2.1568 C.ar      1 <0>         0.1180
      6 C6         -0.7226   16.7569    1.9289 C.ar      1 <0>        -0.0999
      7 C7          0.3982   16.3500    2.6261 C.ar      1 <0>        -0.0777
      8 C8          1.7236   17.0232    2.3795 C.3       1 <0>        -0.1220
      9 N1         -3.0792   16.5451    1.4539 N.pl3     1 <0>        -1.0615
     10 S1         -3.2527   16.1454   -0.1438 S.o2      1 <0>         2.6881
     11 O1         -2.0254   16.4740   -0.7802 O.2       1 <0>        -0.9448
     12 O2         -4.4977   16.6858   -0.5648 O.2       1 <0>        -0.9490
     13 C9         -3.4103   14.3925   -0.2281 C.ar      1 <0>        -0.6677
     14 C10        -4.6657   13.8129   -0.2500 C.ar      1 <0>        -0.0115
     15 C11        -4.7926   12.4393   -0.3160 C.ar      1 <0>        -0.0922
     16 C12        -3.6578   11.6398   -0.3601 C.ar      1 <0>         0.1757
     17 C13        -2.3985   12.2248   -0.3318 C.ar      1 <0>        -0.1389
     18 C14        -2.2784   13.5994   -0.2719 C.ar      1 <0>        -0.0081
     19 N2         -3.7829   10.2483   -0.4271 N.pl3     1 <0>        -0.6276
     20 C15        -4.6631    9.6912   -1.2823 C.2       1 <0>         0.5062
     21 S2         -5.7050   10.6863   -2.2071 S.2       1 <0>        -0.4663
     22 N3         -4.7232    8.3508   -1.4093 N.am      1 <0>        -0.6361
     23 C16        -5.6034    7.7937   -2.2645 C.2       1 <0>         0.5220
     24 O3         -6.3439    8.5009   -2.9218 O.2       1 <0>        -0.4024
     25 C17        -5.6686    6.3386   -2.4024 C.2       1 <0>        -0.2074
     26 C18        -6.5496    5.7811   -3.2583 C.2       1 <0>        -0.0039
     27 C19        -6.6151    4.3173   -3.3971 C.ar      1 <0>        -0.0743
     28 C20        -5.7653    3.5010   -2.6436 C.ar      1 <0>        -0.0530
     29 C21        -5.8367    2.1305   -2.7750 C.ar      1 <0>        -0.1150
     30 C22        -6.7383    1.5623   -3.6586 C.ar      1 <0>        -0.0429
     31 C23        -7.5821    2.3632   -4.4079 C.ar      1 <0>        -0.0425
     32 C24        -7.5270    3.7356   -4.2832 C.ar      1 <0>        -0.0297
     33 N4         -8.5466    1.7453   -5.3454 N.pl3     1 <0>         0.0239
     34 O4         -8.5968    0.5334   -5.4565 O.2       1 <0>        -0.1517
     35 O5         -9.2901    2.4487   -6.0057 O.3       1 <0>        -0.1507
     36 H1          1.6152   15.4616    5.2292 H         1 <0>         0.0739
     37 H2          1.4457   13.8247    4.5509 H         1 <0>         0.0668
     38 H3          2.4162   15.0467    3.6948 H         1 <0>         0.0733
     39 H4         -0.9782   13.9049    4.5017 H         1 <0>         0.1271
     40 H5         -2.9837   14.6284    3.2727 H         1 <0>         0.1279
     41 H6         -0.6495   17.5573    1.2075 H         1 <0>         0.1358
     42 H7          1.8329   17.8698    3.0573 H         1 <0>         0.0739
     43 H8          2.5307   16.3116    2.5538 H         1 <0>         0.0731
     44 H9          1.7661   17.3753    1.3487 H         1 <0>         0.0708
     45 H10        -3.7661   17.0635    1.9015 H         1 <0>         0.4262
     46 H11        -5.5478   14.4352   -0.2157 H         1 <0>         0.1488
     47 H12        -5.7733   11.9873   -0.3338 H         1 <0>         0.1561
     48 H13        -1.5140   11.6057   -0.3614 H         1 <0>         0.1357
     49 H14        -1.2994   14.0551   -0.2550 H         1 <0>         0.1439
     50 H15        -3.2361    9.6842    0.1419 H         1 <0>         0.4111
     51 H16        -4.1329    7.7870   -0.8853 H         1 <0>         0.4126
     52 H17        -5.0114    5.7109   -1.8190 H         1 <0>         0.1360
     53 H18        -7.2068    6.4088   -3.8417 H         1 <0>         0.1504
     54 H19        -5.0581    3.9430   -1.9573 H         1 <0>         0.1475
     55 H20        -5.1848    1.4986   -2.1901 H         1 <0>         0.1541
     56 H21        -6.7864    0.4882   -3.7604 H         1 <0>         0.1586
     57 H22        -8.1867    4.3593   -4.8682 H         1 <0>         0.1622
@<TRIPOS>BOND
     1    1    2 1
     2    1   36 1
     3    1   37 1
     4    1   38 1
     5    2    7 ar
     6    2    3 ar
     7    3    4 ar
     8    3   39 1
     9    4    5 ar
    10    4   40 1
    11    5    6 ar
    12    5    9 1
    13    6    7 ar
    14    6   41 1
    15    7    8 1
    16    8   42 1
    17    8   43 1
    18    8   44 1
    19    9   10 1
    20    9   45 1
    21   10   11 2
    22   10   12 2
    23   10   13 1
    24   13   18 ar
    25   13   14 ar
    26   14   15 ar
    27   14   46 1
    28   15   16 ar
    29   15   47 1
    30   16   17 ar
    31   16   19 1
    32   17   18 ar
    33   17   48 1
    34   18   49 1
    35   19   20 1
    36   19   50 1
    37   20   21 2
    38   20   22 1
    39   22   23 am
    40   22   51 1
    41   23   24 2
    42   23   25 1
    43   25   26 2
    44   25   52 1
    45   26   27 1
    46   26   53 1
    47   27   32 ar
    48   27   28 ar
    49   28   29 ar
    50   28   54 1
    51   29   30 ar
    52   29   55 1
    53   30   31 ar
    54   30   56 1
    55   31   32 ar
    56   31   33 1
    57   32   57 1
    58   33   34 2
    59   33   35 1
@<TRIPOS>MOLECULE
ZINC21076856
   49    51     0     0     0
SMALL
USER_CHARGES
2-[[5-[(N'E)-N'-[(2,4-dichlorophenyl)methylene]hydrazino]-4H-1,2,4-triazol-3-yl]sulfanyl]-N-(5-sec-butylsulfanyl-1,3,4-thiadiazol-2-yl)acetamide
@<TRIPOS>ATOM
      1 C1          9.2984  -11.0350    1.3446 C.3       1 <0>        -0.1631
      2 C2          8.5882  -11.0260   -0.0106 C.3       1 <0>        -0.1097
      3 C3          7.7173   -9.7730   -0.1216 C.3       1 <0>        -0.0918
      4 H1          6.9667   -9.8854    0.6746 H         1 <0>         0.1096
      5 C4          6.9120   -9.8252   -1.4215 C.3       1 <0>        -0.1569
      6 S1          8.7752   -8.2995   -0.1244 S.3       1 <0>         0.0720
      7 C5          7.6352   -6.9561   -0.1066 C.2       1 <0>         0.0149
      8 N1          6.3102   -6.9633   -0.0939 N.2       1 <0>        -0.2552
      9 N2          5.6378   -5.8964   -0.0761 N.2       1 <0>        -0.2728
     10 C6          6.2127   -4.7050   -0.0816 C.2       1 <0>         0.2880
     11 S2          7.9359   -5.1910   -0.1006 S.3       1 <0>         0.0369
     12 N3          5.6409   -3.4351   -0.0697 N.am      1 <0>        -0.6216
     13 C7          4.3000   -3.2999   -0.0560 C.2       1 <0>         0.5353
     14 O1          3.5912   -4.2842   -0.0541 O.2       1 <0>        -0.4508
     15 C8          3.6813   -1.9259   -0.0432 C.3       1 <0>        -0.1622
     16 S3          1.8736   -2.0768   -0.0265 S.3       1 <0>         0.1259
     17 C9          1.3067   -0.4086   -0.0126 C.2       1 <0>         0.2101
     18 N4          0.0021   -0.0041    0.0020 N.2       1 <0>        -0.5460
     19 C10        -0.0165    1.3631    0.0095 C.2       1 <0>         0.5420
     20 N5          1.2247    1.7851   -0.0000 N.pl3     1 <0>        -0.4766
     21 N6          2.0634    0.6629   -0.0141 N.2       1 <0>        -0.3280
     22 N7         -1.1498    2.1632    0.0195 N.pl3     1 <0>        -0.5570
     23 N8         -1.0223    3.5584    0.0265 N.2       1 <0>        -0.2215
     24 C11        -2.0832    4.3073    0.0358 C.2       1 <0>         0.1013
     25 C12        -1.9490    5.7753    0.0431 C.ar      1 <0>        -0.0393
     26 C13        -3.0883    6.5842    0.0531 C.ar      1 <0>        -0.0631
     27 C14        -2.9559    7.9567    0.0604 C.ar      1 <0>        -0.1061
     28 C15        -1.6970    8.5347    0.0578 C.ar      1 <0>        -0.0104
     29 C16        -0.5633    7.7401    0.0479 C.ar      1 <0>        -0.1058
     30 C17        -0.6811    6.3646    0.0459 C.ar      1 <0>         0.0063
     31 Cl1         0.7412    5.3693    0.0407 Cl        1 <0>        -0.0361
     32 Cl2        -1.5402   10.2636    0.0676 Cl        1 <0>        -0.0468
     33 H2          9.9246  -11.9359    1.4244 H         1 <0>         0.0628
     34 H3          8.5500  -11.0360    2.1507 H         1 <0>         0.0602
     35 H4          9.9312  -10.1396    1.4329 H         1 <0>         0.0629
     36 H5          9.3366  -11.0250   -0.8167 H         1 <0>         0.0732
     37 H6          7.9554  -11.9214   -0.0989 H         1 <0>         0.0874
     38 H7          6.2858   -8.9243   -1.5013 H         1 <0>         0.0724
     39 H8          6.2704  -10.7187   -1.4197 H         1 <0>         0.0704
     40 H9          7.6008   -9.8701   -2.2780 H         1 <0>         0.0644
     41 H10         6.2837   -2.5425   -0.0715 H         1 <0>         0.4605
     42 H11         4.0122   -1.3831    0.8545 H         1 <0>         0.1330
     43 H12         3.9949   -1.3742   -0.9417 H         1 <0>         0.1330
     44 H13        -2.1485    1.7022    0.0219 H         1 <0>         0.4391
     45 H14        -3.0819    3.8462    0.0382 H         1 <0>         0.1421
     46 H15        -4.0706    6.1353    0.0548 H         1 <0>         0.1521
     47 H16        -3.8359    8.5826    0.0678 H         1 <0>         0.1486
     48 H17         0.4152    8.1972    0.0462 H         1 <0>         0.1500
     49 H18         1.4388    2.8641    0.0039 H         1 <0>         0.4663
@<TRIPOS>BOND
     1    1    2 1
     2    1   33 1
     3    1   34 1
     4    1   35 1
     5    2    3 1
     6    2   36 1
     7    2   37 1
     8    3    4 1
     9    3    5 1
    10    3    6 1
    11    5   38 1
    12    5   39 1
    13    5   40 1
    14    6    7 1
    15    7   11 1
    16    7    8 2
    17    8    9 1
    18    9   10 2
    19   10   11 1
    20   10   12 1
    21   12   13 am
    22   12   41 1
    23   13   14 2
    24   13   15 1
    25   15   16 1
    26   15   42 1
    27   15   43 1
    28   16   17 1
    29   17   21 2
    30   17   18 1
    31   18   19 2
    32   19   20 1
    33   19   22 1
    34   20   21 1
    35   20   49 1
    36   22   23 1
    37   22   44 1
    38   23   24 2
    39   24   25 1
    40   24   45 1
    41   25   30 ar
    42   25   26 ar
    43   26   27 ar
    44   26   46 1
    45   27   28 ar
    46   27   47 1
    47   28   29 ar
    48   28   32 1
    49   29   30 ar
    50   29   48 1
    51   30   31 1
@<TRIPOS>MOLECULE
ZINC36599008
   73    76     0     0     0
SMALL
USER_CHARGES

@<TRIPOS>ATOM
      1 C1         -1.3441    2.3122   -0.4488 C.3       1 <0>        -0.0754
      2 C2         -1.0771    0.8380   -0.2860 C.2       1 <0>        -0.0074
      3 C3         -1.9360   -0.0660    0.2184 C.2       1 <0>        -0.2201
      4 C4         -1.2789   -1.3175    0.1864 C.2       1 <0>        -0.1645
      5 C5         -0.0579   -1.1034   -0.3356 C.2       1 <0>        -0.0386
      6 O1          0.0567    0.2030   -0.6252 O.3       1 <0>        -0.1751
      7 C6          1.0001   -2.1524   -0.5622 C.3       1 <0>         0.1982
      8 N1          1.2316   -2.3098   -2.0002 N.am      1 <0>        -0.5870
      9 C7          2.1360   -1.3947   -2.7010 C.3       1 <0>         0.1798
     10 H1          2.3888   -0.5612   -2.0458 H         1 <0>         0.1167
     11 C8          3.3937   -2.1295   -3.0873 C.ar      1 <0>        -0.1241
     12 C9          3.3747   -3.5032   -3.2335 C.ar      1 <0>        -0.0891
     13 C10         4.5283   -4.1779   -3.5874 C.ar      1 <0>        -0.1296
     14 C11         5.7038   -3.4800   -3.7964 C.ar      1 <0>        -0.0965
     15 C12         5.7279   -2.1066   -3.6519 C.ar      1 <0>        -0.1434
     16 C13         4.5701   -1.4266   -3.3019 C.ar      1 <0>         0.1106
     17 O2          4.5900   -0.0747   -3.1646 O.3       1 <0>        -0.5009
     18 C14         1.4589   -0.8712   -3.9414 C.2       1 <0>         0.5254
     19 O3          0.3319   -1.2274   -4.2133 O.2       1 <0>        -0.5090
     20 N2          2.1058   -0.0073   -4.7486 N.am      1 <0>        -0.7170
     21 C15         1.4477    0.5017   -5.9544 C.3       1 <0>         0.1722
     22 C16         0.1707    1.2476   -5.5622 C.3       1 <0>        -0.1606
     23 C17         2.3922    1.4573   -6.6863 C.3       1 <0>        -0.1547
     24 C18         1.0927   -0.6684   -6.8741 C.3       1 <0>        -0.1610
     25 C19         0.6126   -3.2963   -2.6785 C.2       1 <0>         0.5118
     26 O4          0.8967   -3.5053   -3.8389 O.2       1 <0>        -0.4831
     27 C20        -0.4326   -4.1398   -1.9950 C.3       1 <0>         0.2088
     28 C21        -1.2251   -4.8947   -3.0310 C.ar      1 <0>        -0.0985
     29 C22        -0.6017   -5.8389   -3.8252 C.ar      1 <0>        -0.0737
     30 C23        -1.3286   -6.5314   -4.7755 C.ar      1 <0>        -0.1220
     31 C24        -2.6789   -6.2801   -4.9311 C.ar      1 <0>        -0.1118
     32 C25        -3.3025   -5.3366   -4.1363 C.ar      1 <0>        -0.1210
     33 C26        -2.5765   -4.6471   -3.1831 C.ar      1 <0>        -0.1029
     34 C27         0.2396   -5.1175   -1.0660 C.ar      1 <0>        -0.0796
     35 C28         1.5087   -5.5838   -1.3539 C.ar      1 <0>        -0.1217
     36 C29         2.1253   -6.4807   -0.5017 C.ar      1 <0>        -0.1129
     37 C30         1.4731   -6.9108    0.6387 C.ar      1 <0>        -0.1105
     38 C31         0.2044   -6.4438    0.9271 C.ar      1 <0>        -0.1179
     39 C32        -0.4105   -5.5436    0.0771 C.ar      1 <0>        -0.0849
     40 O5         -1.3098   -3.2966   -1.2456 O.3       1 <0>        -0.5290
     41 H2         -0.4410    2.8079   -0.8047 H         1 <0>         0.0726
     42 H3         -2.1474    2.4583   -1.1709 H         1 <0>         0.0832
     43 H4         -1.6372    2.7366    0.5115 H         1 <0>         0.0856
     44 H5         -2.9354    0.1271    0.5792 H         1 <0>         0.1450
     45 H6         -1.6803   -2.2638    0.5179 H         1 <0>         0.1599
     46 H7          1.9263   -1.8453   -0.0766 H         1 <0>         0.0874
     47 H8          0.6668   -3.1013   -0.1419 H         1 <0>         0.1272
     48 H9          2.4580   -4.0505   -3.0709 H         1 <0>         0.1488
     49 H10         4.5116   -5.2518   -3.7005 H         1 <0>         0.1250
     50 H11         6.6038   -4.0094   -4.0724 H         1 <0>         0.1279
     51 H12         6.6461   -1.5620   -3.8151 H         1 <0>         0.1316
     52 H13         4.8050    0.2268   -2.2713 H         1 <0>         0.3938
     53 H14         3.0072    0.2776   -4.5311 H         1 <0>         0.4056
     54 H15         0.4236    2.0812   -4.9070 H         1 <0>         0.0517
     55 H16        -0.3190    1.6262   -6.4594 H         1 <0>         0.0611
     56 H17        -0.5022    0.5668   -5.0408 H         1 <0>         0.0760
     57 H18         3.3019    0.9258   -6.9657 H         1 <0>         0.0610
     58 H19         1.9025    1.8359   -7.5834 H         1 <0>         0.0729
     59 H20         2.6450    2.2908   -6.0310 H         1 <0>         0.0613
     60 H21         0.4198   -1.3492   -6.3527 H         1 <0>         0.0802
     61 H22         0.6030   -0.2898   -7.7713 H         1 <0>         0.0590
     62 H23         2.0025   -1.1999   -7.1535 H         1 <0>         0.0510
     63 H24         0.4533   -6.0352   -3.7036 H         1 <0>         0.1177
     64 H25        -0.8414   -7.2685   -5.3965 H         1 <0>         0.1221
     65 H26        -3.2467   -6.8206   -5.6740 H         1 <0>         0.1217
     66 H27        -4.3575   -5.1400   -4.2581 H         1 <0>         0.1230
     67 H28        -3.0645   -3.9126   -2.5595 H         1 <0>         0.1236
     68 H29         2.0182   -5.2478   -2.2448 H         1 <0>         0.1241
     69 H30         3.1165   -6.8456   -0.7270 H         1 <0>         0.1259
     70 H31         1.9546   -7.6121    1.3042 H         1 <0>         0.1251
     71 H32        -0.3053   -6.7801    1.8179 H         1 <0>         0.1267
     72 H33        -1.4003   -5.1759    0.3043 H         1 <0>         0.1335
     73 H34        -1.8320   -2.6904   -1.7888 H         1 <0>         0.3886
@<TRIPOS>BOND
     1    1    2 1
     2    1   41 1
     3    1   42 1
     4    1   43 1
     5    2    6 1
     6    2    3 2
     7    3    4 1
     8    3   44 1
     9    4    5 2
    10    4   45 1
    11    5    6 1
    12    5    7 1
    13    7    8 1
    14    7   46 1
    15    7   47 1
    16    8    9 1
    17    8   25 am
    18    9   10 1
    19    9   11 1
    20    9   18 1
    21   11   16 ar
    22   11   12 ar
    23   12   13 ar
    24   12   48 1
    25   13   14 ar
    26   13   49 1
    27   14   15 ar
    28   14   50 1
    29   15   16 ar
    30   15   51 1
    31   16   17 1
    32   17   52 1
    33   18   19 2
    34   18   20 am
    35   20   21 1
    36   20   53 1
    37   21   22 1
    38   21   23 1
    39   21   24 1
    40   22   54 1
    41   22   55 1
    42   22   56 1
    43   23   57 1
    44   23   58 1
    45   23   59 1
    46   24   60 1
    47   24   61 1
    48   24   62 1
    49   25   26 2
    50   25   27 1
    51   27   28 1
    52   27   34 1
    53   27   40 1
    54   28   33 ar
    55   28   29 ar
    56   29   30 ar
    57   29   63 1
    58   30   31 ar
    59   30   64 1
    60   31   32 ar
    61   31   65 1
    62   32   33 ar
    63   32   66 1
    64   33   67 1
    65   34   39 ar
    66   34   35 ar
    67   35   36 ar
    68   35   68 1
    69   36   37 ar
    70   36   69 1
    71   37   38 ar
    72   37   70 1
    73   38   39 ar
    74   38   71 1
    75   39   72 1
    76   40   73 1
@<TRIPOS>MOLECULE
ZINC40367700
   65    67     0     0     0
SMALL
USER_CHARGES

@<TRIPOS>ATOM
      1 C1         -0.5132   -0.0582    0.3650 C.3       1 <0>        -0.1679
      2 C2          0.3814    0.8887   -0.4375 C.3       1 <0>         0.0734
      3 N1          1.0906    0.1313   -1.4717 N.pl3     1 <0>        -0.4913
      4 C3          0.4555   -0.0866   -2.6596 C.2       1 <0>         0.2401
      5 C4          1.0543   -0.7780   -3.6539 C.2       1 <0>        -0.2620
      6 C5          2.4541   -1.3018   -3.4047 C.3       1 <0>         0.2221
      7 H1          2.4360   -2.3840   -3.5343 H         1 <0>         0.1018
      8 N2          3.0504   -1.0120   -2.0897 N.pl3     1 <0>        -0.6456
      9 C6          2.3275   -0.3034   -1.1999 C.2       1 <0>         0.5496
     10 S1          3.0104    0.0461    0.3306 S.2       1 <0>        -0.5888
     11 C7          3.3607   -0.7265   -4.4621 C.ar      1 <0>        -0.0962
     12 C8          3.8423    0.5634   -4.3318 C.ar      1 <0>        -0.1110
     13 C9          4.6743    1.0949   -5.2998 C.ar      1 <0>        -0.0991
     14 C10         5.0267    0.3387   -6.4007 C.ar      1 <0>        -0.1058
     15 C11         4.5448   -0.9566   -6.5344 C.ar      1 <0>         0.1624
     16 C12         3.7142   -1.4897   -5.5573 C.ar      1 <0>        -0.1003
     17 N3          4.8996   -1.7251   -7.6488 N.am      1 <0>        -0.6795
     18 C13         5.0802   -1.1329   -8.8459 C.2       1 <0>         0.7050
     19 O1          4.8461    0.0527   -8.9792 O.2       1 <0>        -0.5450
     20 N4          5.5203   -1.8550   -9.8954 N.am      1 <0>        -0.6782
     21 C14         5.7939   -1.2235  -11.1137 C.ar      1 <0>         0.2368
     22 C15         6.8511   -1.6602  -11.9002 C.ar      1 <0>        -0.2145
     23 C16         7.1213   -1.0344  -13.1075 C.ar      1 <0>         0.1850
     24 C17         6.3356    0.0278  -13.5294 C.ar      1 <0>        -0.3101
     25 C18         5.2796    0.4649  -12.7439 C.ar      1 <0>         0.1847
     26 C19         5.0047   -0.1638  -11.5391 C.ar      1 <0>        -0.1864
     27 O2          4.5105    1.5061  -13.1578 O.3       1 <0>        -0.3093
     28 C20         4.8469    2.1028  -14.4119 C.3       1 <0>         0.0259
     29 O3          8.1565   -1.4615  -13.8773 O.3       1 <0>        -0.3120
     30 C21         8.3774   -0.7708  -15.1086 C.3       1 <0>         0.0263
     31 C22         0.3969   -1.0054   -4.8852 C.2       1 <0>         0.5356
     32 O4         -0.7275   -0.5755   -5.0630 O.2       1 <0>        -0.5108
     33 O5          1.0166   -1.6990   -5.8629 O.3       1 <0>        -0.3421
     34 C23         0.2935   -1.8911   -7.0804 C.3       1 <0>         0.0648
     35 C24         1.1508   -2.6930   -8.0616 C.3       1 <0>        -0.1506
     36 C25        -0.9367    0.4522   -2.8656 C.3       1 <0>        -0.1289
     37 H2         -1.2364   -0.5274   -0.3021 H         1 <0>         0.0581
     38 H3          0.1004   -0.8272    0.8343 H         1 <0>         0.0709
     39 H4         -1.0409    0.5053    1.1345 H         1 <0>         0.0841
     40 H5         -0.2322    1.6577   -0.9068 H         1 <0>         0.1001
     41 H6          1.1046    1.3579    0.2296 H         1 <0>         0.1357
     42 H7          3.9433   -1.3210   -1.8704 H         1 <0>         0.4471
     43 H8          3.5677    1.1569   -3.4723 H         1 <0>         0.1132
     44 H9          5.0487    2.1025   -5.1952 H         1 <0>         0.1277
     45 H10         5.6760    0.7547   -7.1569 H         1 <0>         0.1371
     46 H11         3.3416   -2.4986   -5.6561 H         1 <0>         0.1321
     47 H12         5.0155   -2.6840   -7.5596 H         1 <0>         0.4089
     48 H13         5.6475   -2.8125   -9.8061 H         1 <0>         0.4121
     49 H14         7.4632   -2.4871  -11.5716 H         1 <0>         0.1362
     50 H15         6.5466    0.5150  -14.4699 H         1 <0>         0.1360
     51 H16         4.1793    0.1737  -10.9297 H         1 <0>         0.1499
     52 H17         4.1565    2.9195  -14.6226 H         1 <0>         0.1033
     53 H18         5.8650    2.4897  -14.3687 H         1 <0>         0.0562
     54 H19         4.7759    1.3543  -15.2011 H         1 <0>         0.0562
     55 H20         8.5788    0.2808  -14.9043 H         1 <0>         0.0567
     56 H21         9.2312   -1.2108  -15.6239 H         1 <0>         0.1035
     57 H22         7.4907   -0.8555  -15.7369 H         1 <0>         0.0567
     58 H23        -0.6278   -2.4356   -6.8738 H         1 <0>         0.0674
     59 H24         0.0526   -0.9217   -7.5166 H         1 <0>         0.0671
     60 H25         2.0722   -2.1485   -8.2683 H         1 <0>         0.0640
     61 H26         1.3917   -3.6624   -7.6254 H         1 <0>         0.0651
     62 H27         0.5993   -2.8395   -8.9903 H         1 <0>         0.0789
     63 H28        -1.2628    0.9706   -1.9639 H         1 <0>         0.0812
     64 H29        -0.9366    1.1479   -3.7047 H         1 <0>         0.1075
     65 H30        -1.6178   -0.3722   -3.0771 H         1 <0>         0.1088
@<TRIPOS>BOND
     1    1    2 1
     2    1   37 1
     3    1   38 1
     4    1   39 1
     5    2    3 1
     6    2   40 1
     7    2   41 1
     8    3    9 1
     9    3    4 1
    10    4    5 2
    11    4   36 1
    12    5    6 1
    13    5   31 1
    14    6    7 1
    15    6    8 1
    16    6   11 1
    17    8    9 1
    18    8   42 1
    19    9   10 2
    20   11   16 ar
    21   11   12 ar
    22   12   13 ar
    23   12   43 1
    24   13   14 ar
    25   13   44 1
    26   14   15 ar
    27   14   45 1
    28   15   16 ar
    29   15   17 1
    30   16   46 1
    31   17   18 am
    32   17   47 1
    33   18   19 2
    34   18   20 am
    35   20   21 1
    36   20   48 1
    37   21   26 ar
    38   21   22 ar
    39   22   23 ar
    40   22   49 1
    41   23   24 ar
    42   23   29 1
    43   24   25 ar
    44   24   50 1
    45   25   26 ar
    46   25   27 1
    47   26   51 1
    48   27   28 1
    49   28   52 1
    50   28   53 1
    51   28   54 1
    52   29   30 1
    53   30   55 1
    54   30   56 1
    55   30   57 1
    56   31   32 2
    57   31   33 1
    58   33   34 1
    59   34   35 1
    60   34   58 1
    61   34   59 1
    62   35   60 1
    63   35   61 1
    64   35   62 1
    65   36   63 1
    66   36   64 1
    67   36   65 1
@<TRIPOS>MOLECULE
ZINC66083190
   64    66     0     0     0
SMALL
USER_CHARGES

@<TRIPOS>ATOM
      1 C1          1.9331   -2.0034   -2.8571 C.3       1 <0>        -0.1672
      2 C2          1.2741   -0.6819   -2.4569 C.3       1 <0>         0.1094
      3 N1         -0.1075   -0.9320   -2.0389 N.am      1 <0>        -0.6101
      4 C3         -0.3961   -1.3142   -0.6544 C.3       1 <0>         0.0985
      5 C4         -0.3963   -0.0656    0.2299 C.3       1 <0>        -0.1787
      6 C5         -1.1130   -0.8106   -2.9280 C.2       1 <0>         0.5657
      7 O1         -0.8688   -0.5479   -4.0899 O.2       1 <0>        -0.5381
      8 C6         -2.5099   -0.9965   -2.4917 C.ar      1 <0>        -0.1917
      9 C7         -2.9679   -0.3764   -1.3255 C.ar      1 <0>        -0.0475
     10 C8         -4.2716   -0.5513   -0.9214 C.ar      1 <0>        -0.1970
     11 C9         -5.1341   -1.3452   -1.6724 C.ar      1 <0>         0.2405
     12 C10        -4.6810   -1.9645   -2.8340 C.ar      1 <0>        -0.2076
     13 C11        -3.3801   -1.7884   -3.2467 C.ar      1 <0>        -0.0163
     14 N2         -6.4508   -1.5203   -1.2611 N.pl3     1 <0>        -0.7302
     15 C12        -7.3597   -2.3555   -2.0502 C.3       1 <0>         0.1057
     16 C13        -8.7159   -2.3809   -1.3937 C.2       1 <0>         0.5089
     17 O2         -8.9047   -1.7623   -0.3677 O.2       1 <0>        -0.5048
     18 N3         -9.7191   -3.0910   -1.9467 N.am      1 <0>        -0.6696
     19 C14       -11.0039   -3.0341   -1.3946 C.ar      1 <0>         0.1392
     20 C15       -11.8307   -4.1504   -1.4420 C.ar      1 <0>        -0.1125
     21 C16       -13.1003   -4.0995   -0.8982 C.ar      1 <0>        -0.1027
     22 C17       -13.5560   -2.9397   -0.3048 C.ar      1 <0>        -0.0985
     23 C18       -12.7334   -1.8131   -0.2521 C.ar      1 <0>        -0.1185
     24 C19       -11.4496   -1.8665   -0.7956 C.ar      1 <0>        -0.0589
     25 C20       -13.2189   -0.5693    0.3825 C.2       1 <0>         0.5603
     26 O3        -12.5009    0.4106    0.4272 O.2       1 <0>        -0.5036
     27 N4        -14.4577   -0.5218    0.9113 N.am      1 <0>        -0.6691
     28 C21       -14.9547    0.6820    1.4209 C.ar      1 <0>         0.1479
     29 C22       -15.8223    0.6731    2.5058 C.ar      1 <0>        -0.1133
     30 C23       -16.3112    1.8635    3.0065 C.ar      1 <0>        -0.0976
     31 C24       -15.9384    3.0636    2.4290 C.ar      1 <0>        -0.0878
     32 C25       -15.0754    3.0758    1.3488 C.ar      1 <0>        -0.1618
     33 C26       -14.5775    1.8891    0.8472 C.ar      1 <0>        -0.0737
     34 C27       -14.6727    4.3858    0.7220 C.3       1 <0>         0.5090
     35 F1        -15.2951    5.4386    1.4012 F         1 <0>        -0.1758
     36 F2        -13.2840    4.5344    0.8037 F         1 <0>        -0.1723
     37 F3        -15.0650    4.4004   -0.6208 F         1 <0>        -0.1758
     38 H1          1.9287   -2.6841   -2.0058 H         1 <0>         0.0549
     39 H2          1.3790   -2.4503   -3.6826 H         1 <0>         0.0588
     40 H3          2.9611   -1.8173   -3.1682 H         1 <0>         0.0665
     41 H4          1.8282   -0.2350   -1.6314 H         1 <0>         0.0756
     42 H5          1.2786   -0.0012   -3.3082 H         1 <0>         0.0856
     43 H6         -1.3737   -1.7938   -0.6061 H         1 <0>         0.0893
     44 H7          0.3669   -2.0085   -0.3025 H         1 <0>         0.0772
     45 H8          0.6292    0.1931    0.4936 H         1 <0>         0.0611
     46 H9         -0.8523    0.7632   -0.3118 H         1 <0>         0.0651
     47 H10        -0.9661   -0.2634    1.1378 H         1 <0>         0.0710
     48 H11        -2.2990    0.2391   -0.7422 H         1 <0>         0.1387
     49 H12        -4.6260   -0.0725   -0.0205 H         1 <0>         0.1281
     50 H13        -5.3524   -2.5800   -3.4142 H         1 <0>         0.1265
     51 H14        -3.0304   -2.2652   -4.1505 H         1 <0>         0.1287
     52 H15        -6.7675   -1.0896   -0.4518 H         1 <0>         0.4146
     53 H16        -7.4503   -1.9442   -3.0556 H         1 <0>         0.1004
     54 H17        -6.9643   -3.3697   -2.1068 H         1 <0>         0.0990
     55 H18        -9.5506   -3.6415   -2.7274 H         1 <0>         0.4174
     56 H19       -11.4799   -5.0606   -1.9056 H         1 <0>         0.1355
     57 H20       -13.7382   -4.9701   -0.9380 H         1 <0>         0.1387
     58 H21       -14.5489   -2.9036    0.1184 H         1 <0>         0.1292
     59 H22       -10.8070   -0.9995   -0.7539 H         1 <0>         0.1516
     60 H23       -15.0046   -1.3225    0.9384 H         1 <0>         0.4143
     61 H24       -16.1144   -0.2637    2.9568 H         1 <0>         0.1375
     62 H25       -16.9858    1.8573    3.8499 H         1 <0>         0.1419
     63 H26       -16.3225    3.9932    2.8223 H         1 <0>         0.1418
     64 H27       -13.8993    1.8996    0.0067 H         1 <0>         0.1467
@<TRIPOS>BOND
     1    1    2 1
     2    1   38 1
     3    1   39 1
     4    1   40 1
     5    2    3 1
     6    2   41 1
     7    2   42 1
     8    3    4 1
     9    3    6 am
    10    4    5 1
    11    4   43 1
    12    4   44 1
    13    5   45 1
    14    5   46 1
    15    5   47 1
    16    6    7 2
    17    6    8 1
    18    8   13 ar
    19    8    9 ar
    20    9   10 ar
    21    9   48 1
    22   10   11 ar
    23   10   49 1
    24   11   12 ar
    25   11   14 1
    26   12   13 ar
    27   12   50 1
    28   13   51 1
    29   14   15 1
    30   14   52 1
    31   15   16 1
    32   15   53 1
    33   15   54 1
    34   16   17 2
    35   16   18 am
    36   18   19 1
    37   18   55 1
    38   19   24 ar
    39   19   20 ar
    40   20   21 ar
    41   20   56 1
    42   21   22 ar
    43   21   57 1
    44   22   23 ar
    45   22   58 1
    46   23   24 ar
    47   23   25 1
    48   24   59 1
    49   25   26 2
    50   25   27 am
    51   27   28 1
    52   27   60 1
    53   28   33 ar
    54   28   29 ar
    55   29   30 ar
    56   29   61 1
    57   30   31 ar
    58   30   62 1
    59   31   32 ar
    60   31   63 1
    61   32   33 ar
    62   32   34 1
    63   33   64 1
    64   34   35 1
    65   34   36 1
    66   34   37 1
@<TRIPOS>MOLECULE
ZINC21262960
   74    76     0     0     0
SMALL
USER_CHARGES
1-benzyl-3-(2,2,6,6-tetramethyl-4-piperidyl)-1-[(3,4,5-trimethoxyphenyl)methyl]thiourea
@<TRIPOS>ATOM
      1 C1         -7.9123    2.2135    5.0727 C.3       1 <0>        -0.1805
      2 C2         -6.6822    1.8058    5.8923 C.3       1 <0>         0.0763
      3 C3         -5.7588    0.9456    5.0332 C.3       1 <0>        -0.1424
      4 C4         -5.0089    1.8146    4.0240 C.3       1 <0>         0.1402
      5 C5         -4.1768    2.8418    4.7912 C.3       1 <0>        -0.1407
      6 C6         -5.0800    3.7243    5.6491 C.3       1 <0>         0.0568
      7 N1         -6.0174    2.9650    6.4500 N.4       1 <0>        -0.5145
      8 C7         -5.8074    4.7355    4.7549 C.3       1 <0>        -0.1741
      9 C8         -4.1714    4.5299    6.6045 C.3       1 <0>        -0.1786
     10 N2         -4.1146    0.9665    3.2259 N.pl3     1 <0>        -0.7028
     11 C9         -3.7398    1.3566    1.9915 C.2       1 <0>         0.5727
     12 S1         -4.3066    2.8410    1.3539 S.2       1 <0>        -0.6363
     13 N3         -2.9189    0.5782    1.2589 N.pl3     1 <0>        -0.5469
     14 C10        -2.4339   -0.6919    1.8045 C.3       1 <0>         0.1309
     15 C11        -1.1419   -0.4600    2.5447 C.ar      1 <0>        -0.1195
     16 C12         0.0578   -0.4600    1.8579 C.ar      1 <0>        -0.0961
     17 C13         1.2424   -0.2420    2.5361 C.ar      1 <0>        -0.1097
     18 C14         1.2284   -0.0349    3.9028 C.ar      1 <0>        -0.1045
     19 C15         0.0293   -0.0406    4.5905 C.ar      1 <0>        -0.1155
     20 C16        -1.1559   -0.2529    3.9114 C.ar      1 <0>        -0.1090
     21 C17        -2.5116    1.0023   -0.0829 C.3       1 <0>         0.1450
     22 C18        -3.4210    0.3725   -1.1064 C.ar      1 <0>        -0.0433
     23 C19        -4.5130    1.0738   -1.5825 C.ar      1 <0>        -0.1990
     24 C20        -5.3492    0.4999   -2.5282 C.ar      1 <0>         0.1459
     25 C21        -5.0912   -0.7840   -2.9933 C.ar      1 <0>         0.0388
     26 C22        -3.9953   -1.4877   -2.5082 C.ar      1 <0>         0.1453
     27 C23        -3.1640   -0.9068   -1.5626 C.ar      1 <0>        -0.2238
     28 O1         -3.7389   -2.7446   -2.9599 O.3       1 <0>        -0.2999
     29 C24        -2.5956   -3.4083   -2.4173 C.3       1 <0>         0.0222
     30 O2         -5.9098   -1.3509   -3.9211 O.3       1 <0>        -0.3142
     31 C25        -5.5783   -1.1387   -5.2949 C.3       1 <0>         0.0326
     32 O3         -6.4200    1.1928   -3.0002 O.3       1 <0>        -0.3012
     33 C26        -6.6925    2.4579   -2.3941 C.3       1 <0>         0.0237
     34 C27        -7.1822    0.9277    7.0610 C.3       1 <0>        -0.1783
     35 H1         -8.3947    1.3137    4.6632 H         1 <0>         0.1039
     36 H2         -7.6015    2.8709    4.2473 H         1 <0>         0.0854
     37 H3         -8.6231    2.7484    5.7197 H         1 <0>         0.0852
     38 H4         -5.0290    0.4342    5.6781 H         1 <0>         0.0915
     39 H5         -6.3549    0.1979    4.4895 H         1 <0>         0.1142
     40 H6         -5.7042    2.3058    3.3274 H         1 <0>         0.1340
     41 H7         -3.4611    2.3202    5.4437 H         1 <0>         0.0842
     42 H8         -3.6287    3.4757    4.0786 H         1 <0>         0.1231
     43 H9         -6.7693    3.7093    6.7512 H         1 <0>         0.4474
     44 H10        -6.4579    5.3709    5.3739 H         1 <0>         0.0787
     45 H11        -6.4174    4.1977    4.0142 H         1 <0>         0.0850
     46 H12        -5.0686    5.3633    4.2352 H         1 <0>         0.1067
     47 H13        -4.7917    5.1791    7.2400 H         1 <0>         0.0844
     48 H14        -3.4771    5.1478    6.0161 H         1 <0>         0.1073
     49 H15        -3.5985    3.8363    7.2375 H         1 <0>         0.0798
     50 H16        -3.7505    0.0127    3.6355 H         1 <0>         0.4161
     51 H17        -3.1837   -1.1041    2.4958 H         1 <0>         0.0860
     52 H18        -2.2631   -1.4027    0.9826 H         1 <0>         0.1093
     53 H19         0.0691   -0.6262    0.7909 H         1 <0>         0.1250
     54 H20         2.1793   -0.2372    1.9988 H         1 <0>         0.1303
     55 H21         2.1543    0.1317    4.4332 H         1 <0>         0.1285
     56 H22         0.0183    0.1212    5.6582 H         1 <0>         0.1244
     57 H23        -2.0928   -0.2574    4.4487 H         1 <0>         0.1085
     58 H24        -2.5787    2.0977   -0.1574 H         1 <0>         0.1324
     59 H25        -1.4749    0.6850   -0.2688 H         1 <0>         0.0967
     60 H26        -4.7125    2.0716   -1.2208 H         1 <0>         0.1555
     61 H27        -2.3120   -1.4528   -1.1853 H         1 <0>         0.1303
     62 H28        -2.5056   -4.4089   -2.8653 H         1 <0>         0.1074
     63 H29        -2.7098   -3.5035   -1.3274 H         1 <0>         0.0545
     64 H30        -1.6914   -2.8234   -2.6416 H         1 <0>         0.0584
     65 H31        -6.3159   -1.6475   -5.9329 H         1 <0>         0.0968
     66 H32        -4.5763   -1.5449   -5.4972 H         1 <0>         0.0460
     67 H33        -5.5876   -0.0604   -5.5120 H         1 <0>         0.0470
     68 H34        -7.5781    2.9077   -2.8667 H         1 <0>         0.1040
     69 H35        -5.8270    3.1232   -2.5293 H         1 <0>         0.0599
     70 H36        -6.8821    2.3165   -1.3198 H         1 <0>         0.0594
     71 H37        -6.3259    0.6132    7.6757 H         1 <0>         0.0803
     72 H38        -7.6918    0.0391    6.6600 H         1 <0>         0.1054
     73 H39        -7.8849    1.5056    7.6793 H         1 <0>         0.0857
     74 H40        -5.4284    2.6626    7.3284 H         1 <0>         0.4418
@<TRIPOS>BOND
     1    1    2 1
     2    1   35 1
     3    1   36 1
     4    1   37 1
     5    2    7 1
     6    2    3 1
     7    2   34 1
     8    3    4 1
     9    3   38 1
    10    3   39 1
    11    4    5 1
    12    4   10 1
    13    4   40 1
    14    5    6 1
    15    5   41 1
    16    5   42 1
    17    6    7 1
    18    6    8 1
    19    6    9 1
    20    7   43 1
    21    7   74 1
    22    8   44 1
    23    8   45 1
    24    8   46 1
    25    9   47 1
    26    9   48 1
    27    9   49 1
    28   10   11 1
    29   10   50 1
    30   11   12 2
    31   11   13 1
    32   13   14 1
    33   13   21 1
    34   14   15 1
    35   14   51 1
    36   14   52 1
    37   15   20 ar
    38   15   16 ar
    39   16   17 ar
    40   16   53 1
    41   17   18 ar
    42   17   54 1
    43   18   19 ar
    44   18   55 1
    45   19   20 ar
    46   19   56 1
    47   20   57 1
    48   21   22 1
    49   21   58 1
    50   21   59 1
    51   22   27 ar
    52   22   23 ar
    53   23   24 ar
    54   23   60 1
    55   24   25 ar
    56   24   32 1
    57   25   26 ar
    58   25   30 1
    59   26   27 ar
    60   26   28 1
    61   27   61 1
    62   28   29 1
    63   29   62 1
    64   29   63 1
    65   29   64 1
    66   30   31 1
    67   31   65 1
    68   31   66 1
    69   31   67 1
    70   32   33 1
    71   33   68 1
    72   33   69 1
    73   33   70 1
    74   34   71 1
    75   34   72 1
    76   34   73 1
@<TRIPOS>MOLECULE
ZINC39609124
   75    80     0     0     0
SMALL
USER_CHARGES

@<TRIPOS>ATOM
      1 C1          1.6909    2.3928    8.8364 C.ar      1 <0>        -0.1082
      2 C2          3.0432    2.6522    8.7136 C.ar      1 <0>        -0.1235
      3 C3          3.6175    2.7476    7.4598 C.ar      1 <0>        -0.1022
      4 C4          2.8397    2.5832    6.3289 C.ar      1 <0>        -0.0988
      5 C5          1.4877    2.3229    6.4518 C.ar      1 <0>        -0.0957
      6 C6          0.9131    2.2289    7.7055 C.ar      1 <0>        -0.1177
      7 C7          3.4657    2.6882    4.9621 C.3       1 <0>         0.1082
      8 O1          3.9201    1.3989    4.5460 O.3       1 <0>        -0.3672
      9 C8          4.5333    1.3874    3.2553 C.3       1 <0>         0.0825
     10 H1          4.9990    2.3523    3.0548 H         1 <0>         0.0646
     11 C9          3.4800    1.0739    2.1726 C.3       1 <0>        -0.1488
     12 C10         4.2373    0.1902    1.1505 C.3       1 <0>        -0.1242
     13 C11         5.1357   -0.6875    2.0570 C.3       1 <0>        -0.1310
     14 C12         5.5869    0.2683    3.1822 C.3       1 <0>         0.1402
     15 H2          5.6305   -0.2660    4.1312 H         1 <0>         0.1083
     16 N1          6.8998    0.8351    2.8640 N.am      1 <0>        -0.7234
     17 C13         8.0216    0.1835    3.2292 C.2       1 <0>         0.5223
     18 O2          7.9441   -0.8722    3.8213 O.2       1 <0>        -0.5127
     19 C14         9.3721    0.7665    2.9019 C.3       1 <0>        -0.1136
     20 H3          9.3489    1.2515    1.9260 H         1 <0>         0.1113
     21 C15        10.4548   -0.3355    2.9294 C.3       1 <0>         0.0893
     22 N2         11.6473    0.3257    3.5099 N.am      1 <0>        -0.6048
     23 C16        11.1025    1.1945    4.5807 C.3       1 <0>         0.1082
     24 C17         9.8003    1.7682    3.9876 C.3       1 <0>        -0.0744
     25 C18         8.7278    1.8669    5.0681 C.3       1 <0>        -0.1469
     26 C19         9.1493    2.9114    6.1055 C.3       1 <0>        -0.0081
     27 N3          9.3311    4.2112    5.4480 N.4       1 <0>        -0.5043
     28 C20        10.4278    4.1313    4.4756 C.3       1 <0>        -0.0115
     29 C21        10.0603    3.1384    3.3692 C.3       1 <0>        -0.1334
     30 C22        12.9360    0.1723    3.1462 C.2       1 <0>         0.5990
     31 O3         13.8152    0.7245    3.7773 O.2       1 <0>        -0.5210
     32 C23        13.2807   -0.6704    1.9759 C.ar      1 <0>         0.1126
     33 C24        14.6304   -0.9118    1.6792 C.ar      1 <0>        -0.1286
     34 C25        14.9611   -1.6864    0.6050 C.ar      1 <0>        -0.0502
     35 C26        13.9197   -2.2215   -0.1762 C.ar      1 <0>        -0.0818
     36 C27        14.1873   -3.0270   -1.2949 C.ar      1 <0>        -0.0991
     37 C28        13.1545   -3.5277   -2.0268 C.ar      1 <0>        -0.1001
     38 C29        11.8320   -3.2520   -1.6816 C.ar      1 <0>        -0.0934
     39 C30        11.5345   -2.4760   -0.6051 C.ar      1 <0>        -0.0919
     40 C31        12.5747   -1.9391    0.1778 C.ar      1 <0>         0.1218
     41 N4         12.3115   -1.1801    1.2412 N.ar      1 <0>        -0.4417
     42 H4          1.2431    2.3138    9.8160 H         1 <0>         0.1265
     43 H5          3.6508    2.7806    9.5971 H         1 <0>         0.1239
     44 H6          4.6738    2.9510    7.3638 H         1 <0>         0.1141
     45 H7          0.8800    2.1948    5.5682 H         1 <0>         0.1245
     46 H8         -0.1433    2.0259    7.8015 H         1 <0>         0.1278
     47 H9          2.7272    3.0599    4.2518 H         1 <0>         0.0613
     48 H10         4.3104    3.3760    5.0012 H         1 <0>         0.0505
     49 H11         2.6417    0.5261    2.6031 H         1 <0>         0.0854
     50 H12         3.1339    1.9929    1.6996 H         1 <0>         0.0730
     51 H13         3.5410   -0.4271    0.5829 H         1 <0>         0.0769
     52 H14         4.8434    0.8036    0.4838 H         1 <0>         0.0679
     53 H15         4.5648   -1.5197    2.4689 H         1 <0>         0.0826
     54 H16         5.9978   -1.0539    1.4997 H         1 <0>         0.0746
     55 H17         6.9617    1.6794    2.3905 H         1 <0>         0.3962
     56 H18        10.1361   -1.1657    3.5596 H         1 <0>         0.0947
     57 H19        10.6678   -0.6842    1.9189 H         1 <0>         0.1419
     58 H20        10.8887    0.6081    5.4743 H         1 <0>         0.0859
     59 H21        11.8014    1.9987    4.8105 H         1 <0>         0.0888
     60 H22         7.7818    2.1645    4.6157 H         1 <0>         0.0982
     61 H23         8.6105    0.8983    5.5540 H         1 <0>         0.1242
     62 H24         8.3770    2.9961    6.8700 H         1 <0>         0.1389
     63 H25        10.0868    2.6048    6.5692 H         1 <0>         0.1341
     64 H26         8.4793    4.4679    4.9720 H         1 <0>         0.4264
     65 H27        10.5980    5.1152    4.0386 H         1 <0>         0.1396
     66 H28        11.3349    3.7956    4.9781 H         1 <0>         0.1346
     67 H29        10.8826    3.0662    2.6573 H         1 <0>         0.1182
     68 H30         9.1626    3.4821    2.8554 H         1 <0>         0.0954
     69 H31        15.4056   -0.4858    2.2988 H         1 <0>         0.1518
     70 H32        15.9946   -1.8830    0.3606 H         1 <0>         0.1513
     71 H33        15.2072   -3.2478   -1.5733 H         1 <0>         0.1376
     72 H34        13.3623   -4.1467   -2.8871 H         1 <0>         0.1352
     73 H35        11.0308   -3.6611   -2.2791 H         1 <0>         0.1364
     74 H36        10.5046   -2.2726   -0.3514 H         1 <0>         0.1373
     75 H37         9.5492    4.9102    6.1422 H         1 <0>         0.4341
@<TRIPOS>BOND
     1    1    6 ar
     2    1    2 ar
     3    1   42 1
     4    2    3 ar
     5    2   43 1
     6    3    4 ar
     7    3   44 1
     8    4    5 ar
     9    4    7 1
    10    5    6 ar
    11    5   45 1
    12    6   46 1
    13    7    8 1
    14    7   47 1
    15    7   48 1
    16    8    9 1
    17    9   10 1
    18    9   14 1
    19    9   11 1
    20   11   12 1
    21   11   49 1
    22   11   50 1
    23   12   13 1
    24   12   51 1
    25   12   52 1
    26   13   14 1
    27   13   53 1
    28   13   54 1
    29   14   15 1
    30   14   16 1
    31   16   17 am
    32   16   55 1
    33   17   18 2
    34   17   19 1
    35   19   20 1
    36   19   24 1
    37   19   21 1
    38   21   22 1
    39   21   56 1
    40   21   57 1
    41   22   23 1
    42   22   30 am
    43   23   24 1
    44   23   58 1
    45   23   59 1
    46   24   29 1
    47   24   25 1
    48   25   26 1
    49   25   60 1
    50   25   61 1
    51   26   27 1
    52   26   62 1
    53   26   63 1
    54   27   28 1
    55   27   64 1
    56   27   75 1
    57   28   29 1
    58   28   65 1
    59   28   66 1
    60   29   67 1
    61   29   68 1
    62   30   31 2
    63   30   32 1
    64   32   41 ar
    65   32   33 ar
    66   33   34 ar
    67   33   69 1
    68   34   35 ar
    69   34   70 1
    70   35   40 ar
    71   35   36 ar
    72   36   37 ar
    73   36   71 1
    74   37   38 ar
    75   37   72 1
    76   38   39 ar
    77   38   73 1
    78   39   40 ar
    79   39   74 1
    80   40   41 ar
@<TRIPOS>MOLECULE
ZINC39665956
   69    72     0     0     0
SMALL
USER_CHARGES

@<TRIPOS>ATOM
      1 C1          2.2730   -6.8768    9.3744 C.3       1 <0>        -0.1158
      2 C2          1.9320   -6.7503    7.9120 C.ar      1 <0>        -0.1165
      3 C3          1.6356   -7.8801    7.1722 C.ar      1 <0>        -0.0818
      4 C4          1.3232   -7.7668    5.8313 C.ar      1 <0>        -0.2085
      5 C5          1.3067   -6.5181    5.2272 C.ar      1 <0>         0.1175
      6 C6          1.6041   -5.3859    5.9718 C.ar      1 <0>        -0.1449
      7 C7          1.9107   -5.5040    7.3136 C.ar      1 <0>        -0.0786
      8 O1          1.0001   -6.4041    3.9081 O.3       1 <0>        -0.3074
      9 C8          0.8192   -7.6184    3.1768 C.3       1 <0>         0.0724
     10 H1          1.4553   -8.3957    3.6002 H         1 <0>         0.0789
     11 C9         -0.6450   -8.0534    3.2649 C.3       1 <0>        -0.1803
     12 C10         1.1968   -7.3923    1.7115 C.3       1 <0>         0.1200
     13 N1          2.6276   -7.0922    1.6166 N.am      1 <0>        -0.7242
     14 C11         3.1883   -6.8558    0.4140 C.2       1 <0>         0.5209
     15 O2          2.5083   -6.8915   -0.5896 O.2       1 <0>        -0.5190
     16 C12         4.6601   -6.5471    0.3164 C.3       1 <0>        -0.1133
     17 H2          5.0101   -6.0764    1.2351 H         1 <0>         0.1127
     18 C13         4.9385   -5.6319   -0.8970 C.3       1 <0>         0.1170
     19 N2          6.2302   -6.1134   -1.4407 N.am      1 <0>        -0.6169
     20 C14         6.1536   -7.5891   -1.3205 C.3       1 <0>         0.0887
     21 C15         5.4588   -7.8307    0.0344 C.3       1 <0>        -0.0723
     22 C16         6.4986   -8.0570    1.1277 C.3       1 <0>        -0.1360
     23 C17         7.2412   -9.3683    0.8556 C.3       1 <0>        -0.0118
     24 N3          6.2819  -10.4790    0.8272 N.4       1 <0>        -0.5051
     25 C18         5.3414  -10.3004   -0.2855 C.3       1 <0>        -0.0080
     26 C19         4.5187   -9.0283   -0.0619 C.3       1 <0>        -0.1484
     27 C20         7.2454   -5.3763   -1.9332 C.2       1 <0>         0.5794
     28 O3          7.1356   -4.1685   -2.0150 O.2       1 <0>        -0.5032
     29 C21         8.4925   -6.0368   -2.3739 C.ar      1 <0>        -0.0987
     30 C22         8.4588   -7.3442   -2.8613 C.ar      1 <0>        -0.1109
     31 C23         9.6261   -7.9546   -3.2714 C.ar      1 <0>        -0.0774
     32 C24        10.8284   -7.2737   -3.1999 C.ar      1 <0>        -0.1545
     33 C25        10.8689   -5.9777   -2.7172 C.ar      1 <0>        -0.0670
     34 C26         9.7080   -5.3536   -2.3097 C.ar      1 <0>        -0.0588
     35 C27        12.0996   -7.9470   -3.6491 C.3       1 <0>         0.5056
     36 F1         12.3050   -7.6950   -5.0098 F         1 <0>        -0.1688
     37 F2         13.1785   -7.4445   -2.9137 F         1 <0>        -0.1714
     38 F3         11.9955   -9.3265   -3.4409 F         1 <0>        -0.1761
     39 H3          1.3608   -6.8089    9.9673 H         1 <0>         0.0722
     40 H4          2.7522   -7.8392    9.5539 H         1 <0>         0.0658
     41 H5          2.9525   -6.0737    9.6599 H         1 <0>         0.0679
     42 H6          1.6486   -8.8520    7.6429 H         1 <0>         0.1250
     43 H7          1.0924   -8.6497    5.2537 H         1 <0>         0.1269
     44 H8          1.5919   -4.4127    5.5038 H         1 <0>         0.1313
     45 H9          2.1380   -4.6225    7.8947 H         1 <0>         0.1316
     46 H10        -0.9140   -8.2145    4.3088 H         1 <0>         0.0723
     47 H11        -1.2811   -7.2761    2.8415 H         1 <0>         0.0760
     48 H12        -0.7830   -8.9797    2.7071 H         1 <0>         0.0769
     49 H13         0.9752   -8.2913    1.1363 H         1 <0>         0.0927
     50 H14         0.6229   -6.5555    1.3133 H         1 <0>         0.0875
     51 H15         3.1715   -7.0637    2.4193 H         1 <0>         0.4022
     52 H16         4.1497   -5.7376   -1.6417 H         1 <0>         0.1016
     53 H17         5.0242   -4.5932   -0.5777 H         1 <0>         0.0992
     54 H18         5.5596   -8.0067   -2.1335 H         1 <0>         0.0930
     55 H19         7.1535   -8.0230   -1.3170 H         1 <0>         0.0962
     56 H20         7.2091   -7.2304    1.1309 H         1 <0>         0.1194
     57 H21         6.0017   -8.1144    2.0961 H         1 <0>         0.0985
     58 H22         7.7511   -9.3041   -0.1056 H         1 <0>         0.1321
     59 H23         7.9736   -9.5411    1.6441 H         1 <0>         0.1415
     60 H24         6.7797  -11.3486    0.7087 H         1 <0>         0.4350
     61 H25         5.8963  -10.2144   -1.2197 H         1 <0>         0.1331
     62 H26         4.6735  -11.1602   -0.3380 H         1 <0>         0.1408
     63 H27         3.9507   -9.1204    0.8639 H         1 <0>         0.0972
     64 H28         3.8333   -8.8867   -0.8975 H         1 <0>         0.1286
     65 H29         7.5210   -7.8770   -2.9170 H         1 <0>         0.1432
     66 H30         9.6013   -8.9662   -3.6488 H         1 <0>         0.1449
     67 H31        11.8107   -5.4519   -2.6636 H         1 <0>         0.1504
     68 H32         9.7402   -4.3402   -1.9378 H         1 <0>         0.1511
     69 H33         5.7711  -10.5029    1.6970 H         1 <0>         0.4286
@<TRIPOS>BOND
     1    1    2 1
     2    1   39 1
     3    1   40 1
     4    1   41 1
     5    2    7 ar
     6    2    3 ar
     7    3    4 ar
     8    3   42 1
     9    4    5 ar
    10    4   43 1
    11    5    6 ar
    12    5    8 1
    13    6    7 ar
    14    6   44 1
    15    7   45 1
    16    8    9 1
    17    9   10 1
    18    9   11 1
    19    9   12 1
    20   11   46 1
    21   11   47 1
    22   11   48 1
    23   12   13 1
    24   12   49 1
    25   12   50 1
    26   13   14 am
    27   13   51 1
    28   14   15 2
    29   14   16 1
    30   16   17 1
    31   16   21 1
    32   16   18 1
    33   18   19 1
    34   18   52 1
    35   18   53 1
    36   19   20 1
    37   19   27 am
    38   20   21 1
    39   20   54 1
    40   20   55 1
    41   21   26 1
    42   21   22 1
    43   22   23 1
    44   22   56 1
    45   22   57 1
    46   23   24 1
    47   23   58 1
    48   23   59 1
    49   24   25 1
    50   24   60 1
    51   24   69 1
    52   25   26 1
    53   25   61 1
    54   25   62 1
    55   26   63 1
    56   26   64 1
    57   27   28 2
    58   27   29 1
    59   29   34 ar
    60   29   30 ar
    61   30   31 ar
    62   30   65 1
    63   31   32 ar
    64   31   66 1
    65   32   33 ar
    66   32   35 1
    67   33   34 ar
    68   33   67 1
    69   34   68 1
    70   35   36 1
    71   35   37 1
    72   35   38 1
@<TRIPOS>MOLECULE
ZINC39676577
   74    77     0     0     0
SMALL
USER_CHARGES

@<TRIPOS>ATOM
      1 C1          6.7799   -2.6760   -1.2842 C.3       1 <0>         0.0252
      2 O1          6.5238   -3.5349   -2.3972 O.3       1 <0>        -0.3157
      3 C2          5.5506   -3.1486   -3.2636 C.ar      1 <0>         0.1372
      4 C3          4.8604   -1.9643   -3.0500 C.ar      1 <0>        -0.2046
      5 C4          3.8719   -1.5736   -3.9324 C.ar      1 <0>        -0.0585
      6 C5          3.5699   -2.3620   -5.0274 C.ar      1 <0>        -0.1377
      7 C6          4.2561   -3.5430   -5.2422 C.ar      1 <0>        -0.0641
      8 C7          5.2497   -3.9350   -4.3661 C.ar      1 <0>        -0.1521
      9 C8          2.4908   -1.9337   -5.9882 C.3       1 <0>         0.2444
     10 C9          3.1212   -1.3027   -7.2029 C.ar      1 <0>        -0.1327
     11 C10         3.6409   -2.1017   -8.2044 C.ar      1 <0>        -0.0741
     12 C11         4.2193   -1.5258   -9.3189 C.ar      1 <0>        -0.1477
     13 C12         4.2784   -0.1444   -9.4327 C.ar      1 <0>         0.1366
     14 C13         3.7562    0.6552   -8.4264 C.ar      1 <0>        -0.2023
     15 C14         3.1738    0.0743   -7.3165 C.ar      1 <0>        -0.0623
     16 O2          4.8473    0.4246  -10.5279 O.3       1 <0>        -0.3150
     17 C15         4.8731    1.8525  -10.5777 C.3       1 <0>         0.0247
     18 N1          1.7078   -3.1028   -6.3960 N.am      1 <0>        -0.7219
     19 C16         0.6807   -3.5256   -5.6326 C.2       1 <0>         0.5196
     20 O3          0.4046   -2.9381   -4.6081 O.2       1 <0>        -0.5109
     21 C17        -0.1248   -4.7282   -6.0521 C.3       1 <0>        -0.1151
     22 H1          0.4946   -5.4175   -6.6260 H         1 <0>         0.1179
     23 C18        -0.7150   -5.4390   -4.8136 C.3       1 <0>         0.1143
     24 N2         -2.0816   -4.8821   -4.6783 N.am      1 <0>        -0.6184
     25 C19        -2.5729   -4.7680   -6.0725 C.3       1 <0>         0.1074
     26 C20        -1.3471   -4.2927   -6.8776 C.3       1 <0>        -0.0724
     27 C21        -1.3242   -4.9610   -8.2488 C.3       1 <0>        -0.1344
     28 C22        -2.5172   -4.4675   -9.0723 C.3       1 <0>        -0.0099
     29 N3         -2.4453   -3.0084   -9.2155 N.4       1 <0>        -0.5047
     30 C23        -2.5618   -2.3697   -7.8990 C.3       1 <0>        -0.0088
     31 C24        -1.3706   -2.7744   -7.0260 C.3       1 <0>        -0.1470
     32 C25        -2.7314   -4.5540   -3.5441 C.2       1 <0>         0.5538
     33 O4         -3.8570   -4.1056   -3.5980 O.2       1 <0>        -0.5331
     34 C26        -2.0593   -4.7442   -2.2087 C.3       1 <0>        -0.1204
     35 C27        -3.0063   -4.2979   -1.0929 C.3       1 <0>        -0.0722
     36 S1         -2.1972   -4.5269    0.5144 S.3       1 <0>        -0.2617
     37 C28        -3.4345   -3.9592    1.7133 C.3       1 <0>        -0.1178
     38 H2          7.0828   -1.6933   -1.6457 H         1 <0>         0.0574
     39 H3          5.8750   -2.5793   -0.6841 H         1 <0>         0.0579
     40 H4          7.5771   -3.1001   -0.6738 H         1 <0>         0.1044
     41 H5          5.0953   -1.3485   -2.1945 H         1 <0>         0.1310
     42 H6          3.3342   -0.6517   -3.7667 H         1 <0>         0.1236
     43 H7          4.0180   -4.1575   -6.0978 H         1 <0>         0.1206
     44 H8          5.7887   -4.8552   -4.5369 H         1 <0>         0.1319
     45 H9          1.8369   -1.2103   -5.5010 H         1 <0>         0.1027
     46 H10         3.5950   -3.1771   -8.1152 H         1 <0>         0.1246
     47 H11         4.6254   -2.1503  -10.1008 H         1 <0>         0.1342
     48 H12         3.8010    1.7308   -8.5127 H         1 <0>         0.1326
     49 H13         2.7632    0.6963   -6.5349 H         1 <0>         0.1273
     50 H14         5.3530    2.1753  -11.5016 H         1 <0>         0.1056
     51 H15         3.8532    2.2357  -10.5449 H         1 <0>         0.0568
     52 H16         5.4328    2.2357   -9.7245 H         1 <0>         0.0594
     53 H17         1.9286   -3.5726   -7.2153 H         1 <0>         0.3982
     54 H18        -0.7580   -6.5157   -4.9779 H         1 <0>         0.0914
     55 H19        -0.1228   -5.2123   -3.9271 H         1 <0>         0.0999
     56 H20        -2.9133   -5.7374   -6.4365 H         1 <0>         0.0845
     57 H21        -3.3765   -4.0340   -6.1338 H         1 <0>         0.0874
     58 H22        -0.3972   -4.7060   -8.7624 H         1 <0>         0.0981
     59 H23        -1.3881   -6.0424   -8.1276 H         1 <0>         0.1222
     60 H24        -2.4940   -4.9308  -10.0586 H         1 <0>         0.1401
     61 H25        -3.4441   -4.7374   -8.5663 H         1 <0>         0.1327
     62 H26        -1.5623   -2.7559   -9.6335 H         1 <0>         0.4278
     63 H27        -2.5715   -1.2866   -8.0205 H         1 <0>         0.1377
     64 H28        -3.4876   -2.6896   -7.4209 H         1 <0>         0.1338
     65 H29        -1.4672   -2.3141   -6.0427 H         1 <0>         0.1230
     66 H30        -0.4453   -2.4404   -7.4954 H         1 <0>         0.0974
     67 H31        -1.8098   -5.7967   -2.0742 H         1 <0>         0.1043
     68 H32        -1.1480   -4.1473   -2.1723 H         1 <0>         0.1109
     69 H33        -3.2558   -3.2454   -1.2275 H         1 <0>         0.0882
     70 H34        -3.9175   -4.8949   -1.1294 H         1 <0>         0.0886
     71 H35        -3.6750   -2.9138    1.5199 H         1 <0>         0.0786
     72 H36        -4.3368   -4.5633    1.6180 H         1 <0>         0.0792
     73 H37        -3.0352   -4.0594    2.7226 H         1 <0>         0.1063
     74 H38        -3.1978   -2.6926   -9.8089 H         1 <0>         0.4339
@<TRIPOS>BOND
     1    1    2 1
     2    1   38 1
     3    1   39 1
     4    1   40 1
     5    2    3 1
     6    3    8 ar
     7    3    4 ar
     8    4    5 ar
     9    4   41 1
    10    5    6 ar
    11    5   42 1
    12    6    7 ar
    13    6    9 1
    14    7    8 ar
    15    7   43 1
    16    8   44 1
    17    9   10 1
    18    9   18 1
    19    9   45 1
    20   10   15 ar
    21   10   11 ar
    22   11   12 ar
    23   11   46 1
    24   12   13 ar
    25   12   47 1
    26   13   14 ar
    27   13   16 1
    28   14   15 ar
    29   14   48 1
    30   15   49 1
    31   16   17 1
    32   17   50 1
    33   17   51 1
    34   17   52 1
    35   18   19 am
    36   18   53 1
    37   19   20 2
    38   19   21 1
    39   21   22 1
    40   21   26 1
    41   21   23 1
    42   23   24 1
    43   23   54 1
    44   23   55 1
    45   24   25 1
    46   24   32 am
    47   25   26 1
    48   25   56 1
    49   25   57 1
    50   26   31 1
    51   26   27 1
    52   27   28 1
    53   27   58 1
    54   27   59 1
    55   28   29 1
    56   28   60 1
    57   28   61 1
    58   29   30 1
    59   29   62 1
    60   29   74 1
    61   30   31 1
    62   30   63 1
    63   30   64 1
    64   31   65 1
    65   31   66 1
    66   32   33 2
    67   32   34 1
    68   34   35 1
    69   34   67 1
    70   34   68 1
    71   35   36 1
    72   35   69 1
    73   35   70 1
    74   36   37 1
    75   37   71 1
    76   37   72 1
    77   37   73 1
@<TRIPOS>MOLECULE
ZINC63480170
   66    70     0     0     0
SMALL
USER_CHARGES

@<TRIPOS>ATOM
      1 C1         -0.0187    1.5258    0.0104 C.3       1 <0>        -0.1643
      2 C2          0.0021   -0.0041    0.0020 C.3       1 <0>         0.1362
      3 C3          0.7421   -0.5109    1.2415 C.3       1 <0>        -0.1637
      4 N1         -1.3723   -0.5112    0.0124 N.am      1 <0>        -0.7196
      5 C4         -1.6432   -1.7342   -0.4849 C.2       1 <0>         0.5021
      6 O1         -0.7491   -2.4150   -0.9410 O.2       1 <0>        -0.5019
      7 C5         -3.0570   -2.2558   -0.4742 C.3       1 <0>         0.1346
      8 H1         -3.6948   -1.5886   -1.0540 H         1 <0>         0.1267
      9 C6         -3.5652   -2.3221    0.9674 C.3       1 <0>        -0.0955
     10 C7         -5.0171   -2.7260    0.9701 C.2       1 <0>         0.0613
     11 C8         -5.5135   -3.9746    1.1251 C.ar      1 <0>        -0.1622
     12 C9         -4.8747   -5.2804    1.3286 C.ar      1 <0>        -0.0269
     13 C10        -5.6533   -6.3794    1.4519 C.ar      1 <0>        -0.1410
     14 C11        -7.0515   -6.3028    1.3899 C.ar      1 <0>         0.0507
     15 C12        -7.7106   -5.1394    1.2053 C.ar      1 <0>        -0.2043
     16 C13        -6.9916   -3.9206    1.0638 C.ar      1 <0>         0.3298
     17 N2         -7.3934   -2.6866    0.8782 N.pl3     1 <0>        -0.5792
     18 C14        -6.2142   -1.8164    0.8067 C.3       1 <0>         0.0600
     19 N3         -3.0875   -3.5961   -1.0648 N.am      1 <0>        -0.7211
     20 C15        -3.1811   -3.7415   -2.4015 C.2       1 <0>         0.5295
     21 O2         -3.2402   -2.7628   -3.1153 O.2       1 <0>        -0.4861
     22 C16        -3.2125   -5.1202   -3.0091 C.3       1 <0>         0.1586
     23 H2         -3.8382   -5.7604   -2.3871 H         1 <0>         0.1008
     24 C17        -1.7746   -5.6906   -3.0177 C.3       1 <0>        -0.0166
     25 S1         -1.5965   -6.2184   -4.7775 S.3       1 <0>        -0.2317
     26 C18        -3.3888   -6.1723   -5.2048 C.3       1 <0>         0.1893
     27 H3         -3.9091   -7.1045   -4.9844 H         1 <0>         0.1385
     28 N4         -3.8112   -5.0316   -4.3416 N.am      1 <0>        -0.6243
     29 C19        -4.6156   -4.2670   -5.1112 C.2       1 <0>         0.6111
     30 O3         -5.4455   -3.4831   -4.6938 O.2       1 <0>        -0.4947
     31 C20        -4.3330   -4.5275   -6.5363 C.ar      1 <0>        -0.1472
     32 C21        -3.5734   -5.7148   -6.6233 C.ar      1 <0>        -0.0740
     33 C22        -3.1599   -6.2022   -7.8412 C.ar      1 <0>        -0.0818
     34 C23        -3.5149   -5.5455   -9.0077 C.ar      1 <0>        -0.0814
     35 C24        -4.2890   -4.4001   -8.9532 C.ar      1 <0>        -0.1144
     36 C25        -4.6982   -3.8663   -7.7083 C.ar      1 <0>        -0.0391
     37 C26        -0.7530   -4.6081   -2.6637 C.3       1 <0>        -0.1495
     38 C27        -1.6533   -6.8867   -2.0713 C.3       1 <0>        -0.1328
     39 H4          1.0039    1.9031    0.0027 H         1 <0>         0.0786
     40 H5         -0.5459    1.8868   -0.8726 H         1 <0>         0.0635
     41 H6         -0.5289    1.8773    0.9072 H         1 <0>         0.0623
     42 H7          0.5123   -0.3556   -0.8948 H         1 <0>         0.0922
     43 H8          0.2319   -0.1594    2.1383 H         1 <0>         0.0575
     44 H9          0.7568   -1.6008    1.2356 H         1 <0>         0.0601
     45 H10         1.7647   -0.1336    1.2338 H         1 <0>         0.0713
     46 H11        -2.0874    0.0333    0.3772 H         1 <0>         0.3976
     47 H12        -2.9829   -3.0560    1.5246 H         1 <0>         0.1242
     48 H13        -3.4595   -1.3433    1.4353 H         1 <0>         0.1329
     49 H14        -3.7990   -5.3625    1.3787 H         1 <0>         0.1583
     50 H15        -5.1854   -7.3412    1.6016 H         1 <0>         0.1601
     51 H16        -7.6250   -7.2121    1.4938 H         1 <0>         0.1622
     52 H17        -8.7899   -5.1341    1.1646 H         1 <0>         0.1617
     53 H18        -6.2389   -1.0799    1.6098 H         1 <0>         0.1781
     54 H19        -6.1769   -1.3166   -0.1613 H         1 <0>         0.1750
     55 H20        -3.0402   -4.3789   -0.4940 H         1 <0>         0.4023
     56 H21        -2.5576   -7.0975   -7.8878 H         1 <0>         0.1360
     57 H22        -3.1867   -5.9287   -9.9626 H         1 <0>         0.1415
     58 H23        -4.5685   -3.8959   -9.8664 H         1 <0>         0.1404
     59 H24        -5.3104   -2.9779   -7.6595 H         1 <0>         0.1387
     60 H25        -0.9678   -4.2170   -1.6692 H         1 <0>         0.1060
     61 H26         0.2494   -5.0361   -2.6770 H         1 <0>         0.0730
     62 H27        -0.8127   -3.7998   -3.3926 H         1 <0>         0.0697
     63 H28        -2.3420   -7.6706   -2.3864 H         1 <0>         0.0720
     64 H29        -0.6325   -7.2681   -2.0968 H         1 <0>         0.0850
     65 H30        -1.8989   -6.5735   -1.0566 H         1 <0>         0.0666
     66 H31        -8.3161   -2.3967    0.8045 H         1 <0>         0.4572
@<TRIPOS>BOND
     1    1    2 1
     2    1   39 1
     3    1   40 1
     4    1   41 1
     5    2    3 1
     6    2    4 1
     7    2   42 1
     8    3   43 1
     9    3   44 1
    10    3   45 1
    11    4    5 am
    12    4   46 1
    13    5    6 2
    14    5    7 1
    15    7    8 1
    16    7    9 1
    17    7   19 1
    18    9   10 1
    19    9   47 1
    20    9   48 1
    21   10   18 1
    22   10   11 2
    23   11   16 ar
    24   11   12 ar
    25   12   13 ar
    26   12   49 1
    27   13   14 ar
    28   13   50 1
    29   14   15 ar
    30   14   51 1
    31   15   16 ar
    32   15   52 1
    33   16   17 2
    34   17   18 1
    35   17   66 1
    36   18   53 1
    37   18   54 1
    38   19   20 am
    39   19   55 1
    40   20   21 2
    41   20   22 1
    42   22   23 1
    43   22   28 1
    44   22   24 1
    45   24   25 1
    46   24   37 1
    47   24   38 1
    48   25   26 1
    49   26   27 1
    50   26   32 1
    51   26   28 1
    52   28   29 am
    53   29   30 2
    54   29   31 1
    55   31   36 ar
    56   31   32 ar
    57   32   33 ar
    58   33   34 ar
    59   33   56 1
    60   34   35 ar
    61   34   57 1
    62   35   36 ar
    63   35   58 1
    64   36   59 1
    65   37   60 1
    66   37   61 1
    67   37   62 1
    68   38   63 1
    69   38   64 1
    70   38   65 1
@<TRIPOS>MOLECULE
ZINC08858767
   53    54     0     0     0
SMALL
USER_CHARGES
N-[1-[(3-acetylaminophenyl)thiocarbamoylamino]-2,2,2-trichloro-ethyl]-3,4-dimethoxy-benzamide
@<TRIPOS>ATOM
      1 C1         -1.2554    3.4120   10.5220 C.3       1 <0>        -0.1703
      2 C2         -1.2275    2.6594    9.2166 C.2       1 <0>         0.5096
      3 O1         -1.0952    3.2616    8.1722 O.2       1 <0>        -0.5273
      4 N1         -1.3496    1.3172    9.2099 N.am      1 <0>        -0.6727
      5 C3         -1.3860    0.6241    7.9949 C.ar      1 <0>         0.1412
      6 C4         -2.1907   -0.5004    7.8596 C.ar      1 <0>        -0.1318
      7 C5         -2.2272   -1.1853    6.6604 C.ar      1 <0>        -0.0948
      8 C6         -1.4638   -0.7549    5.5921 C.ar      1 <0>        -0.0795
      9 C7         -0.6568    0.3684    5.7211 C.ar      1 <0>         0.1326
     10 C8         -0.6136    1.0552    6.9262 C.ar      1 <0>        -0.1198
     11 N2          0.1158    0.8035    4.6391 N.pl3     1 <0>        -0.6219
     12 C9         -0.4189    0.8448    3.4027 C.2       1 <0>         0.5520
     13 S1         -2.0117    0.2751    3.1394 S.2       1 <0>        -0.5442
     14 N3          0.3003    1.3347    2.3735 N.pl3     1 <0>        -0.6947
     15 C10        -0.2809    1.3796    1.0294 C.3       1 <0>         0.3621
     16 H1         -1.1689    0.7484    0.9963 H         1 <0>         0.1999
     17 C11         0.7440    0.8719    0.0133 C.3       1 <0>         0.1094
     18 Cl1         1.1983   -0.8260    0.4151 Cl        1 <0>        -0.0560
     19 Cl2         2.2128    1.9161    0.0681 Cl        1 <0>        -0.0898
     20 Cl3         0.0287    0.9272   -1.6408 Cl        1 <0>        -0.0476
     21 N4         -0.6501    2.7593    0.7030 N.am      1 <0>        -0.7307
     22 C12        -1.9451    3.1324    0.7202 C.2       1 <0>         0.5649
     23 O2         -2.8069    2.3240    1.0066 O.2       1 <0>        -0.4731
     24 C13        -2.3171    4.5225    0.3912 C.ar      1 <0>        -0.1343
     25 C14        -1.3275    5.4540    0.0675 C.ar      1 <0>        -0.0789
     26 C15        -1.6767    6.7500   -0.2441 C.ar      1 <0>        -0.1821
     27 C16        -3.0101    7.1362   -0.2269 C.ar      1 <0>         0.1314
     28 C17        -4.0021    6.2131    0.1004 C.ar      1 <0>         0.0944
     29 C18        -3.6592    4.9109    0.4086 C.ar      1 <0>        -0.1092
     30 O3         -5.3075    6.5944    0.1159 O.3       1 <0>        -0.3032
     31 C19        -6.2708    5.5965    0.4597 C.3       1 <0>         0.0223
     32 O4         -3.3488    8.4161   -0.5292 O.3       1 <0>        -0.2999
     33 C20        -2.2823    9.3095   -0.8554 C.3       1 <0>         0.0228
     34 H2         -1.3806    2.7080   11.3446 H         1 <0>         0.0794
     35 H3         -0.3190    3.9554   10.6481 H         1 <0>         0.0986
     36 H4         -2.0867    4.1169   10.5172 H         1 <0>         0.1000
     37 H5         -1.4123    0.8317   10.0473 H         1 <0>         0.4130
     38 H6         -2.7886   -0.8393    8.6927 H         1 <0>         0.1285
     39 H7         -2.8541   -2.0587    6.5575 H         1 <0>         0.1345
     40 H8         -1.4948   -1.2923    4.6558 H         1 <0>         0.1525
     41 H9          0.0164    1.9262    7.0304 H         1 <0>         0.1373
     42 H10         1.0364    1.0754    4.7787 H         1 <0>         0.4070
     43 H11         1.2028    1.6575    2.5226 H         1 <0>         0.4001
     44 H12         0.0374    3.4042    0.4744 H         1 <0>         0.4020
     45 H13        -0.2891    5.1573    0.0577 H         1 <0>         0.1275
     46 H14        -0.9110    7.4681   -0.4979 H         1 <0>         0.1434
     47 H15        -4.4266    4.1948    0.6627 H         1 <0>         0.1527
     48 H16        -6.2141    4.7753   -0.2548 H         1 <0>         0.0589
     49 H17        -6.0634    5.2212    1.4618 H         1 <0>         0.0588
     50 H18        -7.2698    6.0318    0.4343 H         1 <0>         0.1042
     51 H19        -1.5960    9.3797   -0.0115 H         1 <0>         0.0579
     52 H20        -1.7478    8.9341   -1.7281 H         1 <0>         0.0584
     53 H21        -2.6895   10.2964   -1.0755 H         1 <0>         0.1044
@<TRIPOS>BOND
     1    1    2 1
     2    1   34 1
     3    1   35 1
     4    1   36 1
     5    2    3 2
     6    2    4 am
     7    4    5 1
     8    4   37 1
     9    5   10 ar
    10    5    6 ar
    11    6    7 ar
    12    6   38 1
    13    7    8 ar
    14    7   39 1
    15    8    9 ar
    16    8   40 1
    17    9   10 ar
    18    9   11 1
    19   10   41 1
    20   11   12 1
    21   11   42 1
    22   12   13 2
    23   12   14 1
    24   14   15 1
    25   14   43 1
    26   15   16 1
    27   15   17 1
    28   15   21 1
    29   17   18 1
    30   17   19 1
    31   17   20 1
    32   21   22 am
    33   21   44 1
    34   22   23 2
    35   22   24 1
    36   24   29 ar
    37   24   25 ar
    38   25   26 ar
    39   25   45 1
    40   26   27 ar
    41   26   46 1
    42   27   28 ar
    43   27   32 1
    44   28   29 ar
    45   28   30 1
    46   29   47 1
    47   30   31 1
    48   31   48 1
    49   31   49 1
    50   31   50 1
    51   32   33 1
    52   33   51 1
    53   33   52 1
    54   33   53 1
@<TRIPOS>MOLECULE
ZINC12476928
   67    69     0     0     0
SMALL
USER_CHARGES
4-amino-N'-[(1R)-2-(tert-butylamino)-2-oxo-1-(p-tolyl)ethyl]-N'-[(4-methoxyphenyl)methyl]isothiazole-3,5-dicarboxamide
@<TRIPOS>ATOM
      1 C1          3.1967   -0.0548    4.9708 C.3       1 <0>        -0.1193
      2 C2          3.8124   -0.0229    3.5957 C.ar      1 <0>        -0.0684
      3 C3          4.7357   -0.9842    3.2293 C.ar      1 <0>        -0.1201
      4 C4          5.3002   -0.9551    1.9678 C.ar      1 <0>        -0.0963
      5 C5          4.9417    0.0356    1.0729 C.ar      1 <0>        -0.1214
      6 C6          4.0226    1.0002    1.4412 C.ar      1 <0>        -0.0824
      7 C7          3.4542    0.9681    2.7009 C.ar      1 <0>        -0.1177
      8 C8          5.5574    0.0675   -0.3022 C.3       1 <0>         0.1636
      9 H1          5.6651   -0.9508   -0.6759 H         1 <0>         0.0992
     10 C9          6.9128    0.7223   -0.2306 C.2       1 <0>         0.5271
     11 O1          7.0087    1.8820    0.1110 O.2       1 <0>        -0.5014
     12 N1          8.0184    0.0191   -0.5462 N.am      1 <0>        -0.7149
     13 C10         9.3361    0.6556   -0.4766 C.3       1 <0>         0.1695
     14 C11         9.5971    1.1326    0.9535 C.3       1 <0>        -0.1646
     15 C12        10.4121   -0.3537   -0.8820 C.3       1 <0>        -0.1577
     16 C13         9.3751    1.8527   -1.4287 C.3       1 <0>        -0.1659
     17 N2          4.6936    0.8307   -1.2065 N.am      1 <0>        -0.5903
     18 C14         5.0590    2.1967   -1.5894 C.3       1 <0>         0.1452
     19 C15         4.3458    3.1771   -0.6944 C.ar      1 <0>        -0.1413
     20 C16         2.9661    3.2630   -0.7258 C.ar      1 <0>        -0.0699
     21 C17         2.3096    4.1570    0.0978 C.ar      1 <0>        -0.2160
     22 C18         3.0365    4.9770    0.9486 C.ar      1 <0>         0.1321
     23 C19         4.4210    4.8928    0.9742 C.ar      1 <0>        -0.1587
     24 C20         5.0724    3.9933    0.1527 C.ar      1 <0>        -0.0437
     25 O2          2.3933    5.8608    1.7561 O.3       1 <0>        -0.3181
     26 C21         0.9668    5.8928    1.6767 C.3       1 <0>         0.0272
     27 C22         3.5627    0.2761   -1.6860 C.2       1 <0>         0.6300
     28 O3          2.9042    0.8642   -2.5238 O.2       1 <0>        -0.5283
     29 C23         3.1262   -1.0341   -1.1991 C.2       1 <0>        -0.3993
     30 C24         1.9776   -1.7597   -1.5201 C.2       1 <0>         0.2781
     31 C25         1.9106   -2.9794   -0.8464 C.2       1 <0>        -0.0410
     32 N3          2.8780   -3.3122   -0.0207 N.2       1 <0>        -0.4555
     33 S1          3.9187   -2.1286   -0.0393 S.3       1 <0>         0.4673
     34 C26         0.7668   -3.8854   -1.0576 C.2       1 <0>         0.6012
     35 O4         -0.1248   -3.5709   -1.8225 O.2       1 <0>        -0.5430
     36 N4          0.7093   -5.0621   -0.4030 N.am      1 <0>        -0.8314
     37 N5          1.0092   -1.3165   -2.4108 N.pl3     1 <0>        -0.8060
     38 H2          3.8079    0.5322    5.6564 H         1 <0>         0.0739
     39 H3          2.1919    0.3657    4.9289 H         1 <0>         0.0667
     40 H4          3.1448   -1.0855    5.3218 H         1 <0>         0.0681
     41 H5          5.0158   -1.7582    3.9285 H         1 <0>         0.1269
     42 H6          6.0215   -1.7062    1.6816 H         1 <0>         0.1267
     43 H7          3.7458    1.7768    0.7436 H         1 <0>         0.1452
     44 H8          2.7332    1.7194    2.9873 H         1 <0>         0.1201
     45 H9          7.9417   -0.9085   -0.8194 H         1 <0>         0.4009
     46 H10         9.5693    0.2798    1.6317 H         1 <0>         0.0551
     47 H11        10.5775    1.6062    1.0053 H         1 <0>         0.0645
     48 H12         8.8305    1.8517    1.2423 H         1 <0>         0.0801
     49 H13        10.2261   -0.6936   -1.9008 H         1 <0>         0.0633
     50 H14        11.3925    0.1199   -0.8302 H         1 <0>         0.0762
     51 H15        10.3843   -1.2065   -0.2037 H         1 <0>         0.0636
     52 H16         8.6086    2.5717   -1.1399 H         1 <0>         0.0786
     53 H17        10.3555    2.3263   -1.3769 H         1 <0>         0.0660
     54 H18         9.1892    1.5128   -2.4475 H         1 <0>         0.0556
     55 H19         6.1362    2.3273   -1.4858 H         1 <0>         0.1125
     56 H20         4.7695    2.3734   -2.6253 H         1 <0>         0.0929
     57 H21         2.4010    2.6276   -1.3916 H         1 <0>         0.1349
     58 H22         1.2317    4.2206    0.0761 H         1 <0>         0.1250
     59 H23         4.9891    5.5304    1.6354 H         1 <0>         0.1283
     60 H24         6.1502    3.9271    0.1725 H         1 <0>         0.1416
     61 H25         0.6651    6.1504    0.6615 H         1 <0>         0.0556
     62 H26         0.5664    4.9130    1.9373 H         1 <0>         0.0543
     63 H27         0.5810    6.6393    2.3709 H         1 <0>         0.0998
     64 H28         1.4204   -5.3129    0.2071 H         1 <0>         0.4112
     65 H29        -0.0433   -5.6581   -0.5420 H         1 <0>         0.4091
     66 H30         0.2311   -1.8659   -2.5943 H         1 <0>         0.4189
     67 H31         1.1106   -0.4574   -2.8496 H         1 <0>         0.4161
@<TRIPOS>BOND
     1    1    2 1
     2    1   38 1
     3    1   39 1
     4    1   40 1
     5    2    7 ar
     6    2    3 ar
     7    3    4 ar
     8    3   41 1
     9    4    5 ar
    10    4   42 1
    11    5    6 ar
    12    5    8 1
    13    6    7 ar
    14    6   43 1
    15    7   44 1
    16    8    9 1
    17    8   10 1
    18    8   17 1
    19   10   11 2
    20   10   12 am
    21   12   13 1
    22   12   45 1
    23   13   14 1
    24   13   15 1
    25   13   16 1
    26   14   46 1
    27   14   47 1
    28   14   48 1
    29   15   49 1
    30   15   50 1
    31   15   51 1
    32   16   52 1
    33   16   53 1
    34   16   54 1
    35   17   18 1
    36   17   27 am
    37   18   19 1
    38   18   55 1
    39   18   56 1
    40   19   24 ar
    41   19   20 ar
    42   20   21 ar
    43   20   57 1
    44   21   22 ar
    45   21   58 1
    46   22   23 ar
    47   22   25 1
    48   23   24 ar
    49   23   59 1
    50   24   60 1
    51   25   26 1
    52   26   61 1
    53   26   62 1
    54   26   63 1
    55   27   28 2
    56   27   29 1
    57   29   33 1
    58   29   30 2
    59   30   31 1
    60   30   37 1
    61   31   32 2
    62   31   34 1
    63   32   33 1
    64   34   35 2
    65   34   36 am
    66   36   64 1
    67   36   65 1
    68   37   66 1
    69   37   67 1
@<TRIPOS>MOLECULE
ZINC20371094
   66    69     0     0     0
SMALL
USER_CHARGES
(3S)-1-(4-acetamidophenyl)-N-(4-benzamido-2,5-dimethoxy-phenyl)-5-oxo-pyrrolidine-3-carboxamide
@<TRIPOS>ATOM
      1 C1          8.3270    5.5572    0.5245 C.3       1 <0>        -0.1720
      2 C2          7.1839    4.5787    0.4413 C.2       1 <0>         0.5105
      3 O1          7.2684    3.6072   -0.2800 O.2       1 <0>        -0.5323
      4 N1          6.0676    4.7831    1.1683 N.am      1 <0>        -0.6863
      5 C3          5.0533    3.8171    1.1810 C.ar      1 <0>         0.1256
      6 C4          3.7231    4.2079    1.2602 C.ar      1 <0>        -0.1170
      7 C5          2.7236    3.2559    1.2727 C.ar      1 <0>        -0.1359
      8 C6          3.0483    1.9073    1.2061 C.ar      1 <0>         0.1510
      9 C7          4.3787    1.5163    1.1322 C.ar      1 <0>        -0.1323
     10 C8          5.3780    2.4686    1.1139 C.ar      1 <0>        -0.0937
     11 N2          2.0341    0.9413    1.2192 N.am      1 <0>        -0.5518
     12 C9          2.2588   -0.4979    1.0392 C.3       1 <0>         0.1085
     13 C10         0.9739   -1.1833    1.5546 C.3       1 <0>        -0.1206
     14 H1          0.7299   -2.1337    1.0573 H         1 <0>         0.1392
     15 C11        -0.0776   -0.0657    1.3643 C.3       1 <0>        -0.1445
     16 C12         0.7299    1.2132    1.3982 C.2       1 <0>         0.5192
     17 O2          0.2672    2.3229    1.5584 O.2       1 <0>        -0.5056
     18 C13         1.1076   -1.5562    3.0086 C.2       1 <0>         0.5139
     19 O3          2.1689   -1.4096    3.5772 O.2       1 <0>        -0.5179
     20 N3          0.0478   -2.0526    3.6771 N.am      1 <0>        -0.6707
     21 C14         0.1956   -2.4872    5.0024 C.ar      1 <0>         0.1431
     22 C15         1.0729   -1.8308    5.8541 C.ar      1 <0>        -0.1561
     23 C16         1.2146   -2.2563    7.1641 C.ar      1 <0>         0.0872
     24 C17         0.4854   -3.3506    7.6237 C.ar      1 <0>         0.1522
     25 C18        -0.3875   -4.0103    6.7705 C.ar      1 <0>        -0.1587
     26 C19        -0.5337   -3.5807    5.4618 C.ar      1 <0>         0.0920
     27 O4         -1.3896   -4.2275    4.6252 O.3       1 <0>        -0.3158
     28 C20        -2.1054   -5.3411    5.1634 C.3       1 <0>         0.0250
     29 N4          0.6331   -3.7849    8.9482 N.am      1 <0>        -0.6710
     30 C21         0.5467   -5.0978    9.2404 C.2       1 <0>         0.5617
     31 O5          0.4417   -5.9141    8.3456 O.2       1 <0>        -0.5240
     32 C22         0.5797   -5.5452   10.6489 C.ar      1 <0>        -0.1359
     33 C23         0.7059   -4.6110   11.6784 C.ar      1 <0>        -0.0847
     34 C24         0.7293   -5.0347   12.9910 C.ar      1 <0>        -0.1261
     35 C25         0.6409   -6.3833   13.2876 C.ar      1 <0>        -0.0908
     36 C26         0.5218   -7.3149   12.2716 C.ar      1 <0>        -0.1266
     37 C27         0.4904   -6.9042   10.9550 C.ar      1 <0>        -0.0583
     38 O6          2.0708   -1.6096    8.0005 O.3       1 <0>        -0.3162
     39 C28         2.7861   -0.4957    7.4623 C.3       1 <0>         0.0261
     40 H2          8.0674    6.3656    1.2238 H         1 <0>         0.0790
     41 H3          8.5193    5.9819   -0.4718 H         1 <0>         0.0983
     42 H4          9.2285    5.0383    0.8822 H         1 <0>         0.0990
     43 H5          5.9530    5.7086    1.7517 H         1 <0>         0.4343
     44 H6          3.4706    5.2567    1.3124 H         1 <0>         0.1300
     45 H7          1.6891    3.5598    1.3347 H         1 <0>         0.1581
     46 H8          4.6315    0.4673    1.0849 H         1 <0>         0.1294
     47 H9          6.4125    2.1646    1.0520 H         1 <0>         0.1357
     48 H10         2.4288   -0.7120   -0.0263 H         1 <0>         0.0955
     49 H11         3.1401   -0.8070    1.6205 H         1 <0>         0.1078
     50 H12        -0.5903   -0.2048    0.4011 H         1 <0>         0.1283
     51 H13        -0.8131   -0.1113    2.1810 H         1 <0>         0.1126
     52 H14        -0.9330   -2.1169    3.1833 H         1 <0>         0.4407
     53 H15         1.6418   -0.9854    5.4964 H         1 <0>         0.1575
     54 H16        -0.9532   -4.8585    7.1268 H         1 <0>         0.1523
     55 H17        -2.7566   -5.7684    4.3867 H         1 <0>         0.1032
     56 H18        -2.7188   -5.0067    6.0130 H         1 <0>         0.0551
     57 H19        -1.3917   -6.1054    5.5047 H         1 <0>         0.0613
     58 H20         0.8195   -3.0542    9.7491 H         1 <0>         0.4376
     59 H21         0.7799   -3.5584   11.4480 H         1 <0>         0.1265
     60 H22         0.8217   -4.3125   13.7888 H         1 <0>         0.1311
     61 H23         0.6646   -6.7101   14.3166 H         1 <0>         0.1293
     62 H24         0.4528   -8.3661   12.5098 H         1 <0>         0.1317
     63 H25         0.3974   -7.6324   10.1629 H         1 <0>         0.1367
     64 H26         3.4376   -0.0685    8.2388 H         1 <0>         0.1027
     65 H27         2.0721    0.2685    7.1216 H         1 <0>         0.0549
     66 H28         3.3992   -0.8297    6.6122 H         1 <0>         0.0610
@<TRIPOS>BOND
     1    1    2 1
     2    1   40 1
     3    1   41 1
     4    1   42 1
     5    2    3 2
     6    2    4 am
     7    4    5 1
     8    4   43 1
     9    5   10 ar
    10    5    6 ar
    11    6    7 ar
    12    6   44 1
    13    7    8 ar
    14    7   45 1
    15    8    9 ar
    16    8   11 1
    17    9   10 ar
    18    9   46 1
    19   10   47 1
    20   11   16 am
    21   11   12 1
    22   12   13 1
    23   12   48 1
    24   12   49 1
    25   13   14 1
    26   13   15 1
    27   13   18 1
    28   15   16 1
    29   15   50 1
    30   15   51 1
    31   16   17 2
    32   18   19 2
    33   18   20 am
    34   20   21 1
    35   20   52 1
    36   21   26 ar
    37   21   22 ar
    38   22   23 ar
    39   22   53 1
    40   23   24 ar
    41   23   38 1
    42   24   25 ar
    43   24   29 1
    44   25   26 ar
    45   25   54 1
    46   26   27 1
    47   27   28 1
    48   28   55 1
    49   28   56 1
    50   28   57 1
    51   29   30 am
    52   29   58 1
    53   30   31 2
    54   30   32 1
    55   32   37 ar
    56   32   33 ar
    57   33   34 ar
    58   33   59 1
    59   34   35 ar
    60   34   60 1
    61   35   36 ar
    62   35   61 1
    63   36   37 ar
    64   36   62 1
    65   37   63 1
    66   38   39 1
    67   39   64 1
    68   39   65 1
    69   39   66 1
@<TRIPOS>MOLECULE
ZINC12973815
   60    63     0     0     0
SMALL
USER_CHARGES

@<TRIPOS>ATOM
      1 C1         -0.0167    1.3781    0.0096 C.ar      1 <0>        -0.1127
      2 C2          1.1709    2.0855    0.0021 C.ar      1 <0>        -0.1146
      3 C3          2.3773    1.4107   -0.0130 C.ar      1 <0>        -0.0999
      4 C4          2.3960    0.0285   -0.0201 C.ar      1 <0>        -0.0945
      5 C5          1.2084   -0.6789   -0.0117 C.ar      1 <0>        -0.1079
      6 C6          0.0021   -0.0041    0.0020 C.ar      1 <0>        -0.1143
      7 C7          3.7112   -0.7071   -0.0376 C.3       1 <0>         0.2789
      8 H1          4.5034   -0.0434    0.3089 H         1 <0>         0.1177
      9 C8          4.0144   -1.1607   -1.4423 C.2       1 <0>        -0.1500
     10 C9          4.8433   -0.6038   -2.3589 C.2       1 <0>        -0.1415
     11 C10         4.9677   -1.1998   -3.5999 C.2       1 <0>        -0.1545
     12 C11         4.2571   -2.3236   -3.8635 C.2       1 <0>        -0.1722
     13 S1          3.3813   -2.5753   -2.3284 S.3       1 <0>         0.0401
     14 N1          3.6301   -1.8734    0.8453 N.am      1 <0>        -0.7279
     15 C12         4.7514   -2.3850    1.3907 C.2       1 <0>         0.5190
     16 O1          5.8276   -1.8799    1.1505 O.2       1 <0>        -0.5091
     17 C13         4.6680   -3.5846    2.2989 C.3       1 <0>         0.0359
     18 N2          6.0157   -3.9449    2.7592 N.3       1 <0>        -0.5183
     19 C14         6.8496   -4.4024    1.6397 C.3       1 <0>         0.0395
     20 C15         8.2903   -4.5944    2.1253 C.3       1 <0>         0.1243
     21 N3          8.2743   -5.4869    3.2942 N.pl3     1 <0>        -0.9984
     22 C16         7.3597   -5.1678    4.4010 C.3       1 <0>         0.1224
     23 C17         5.9557   -4.9533    3.8258 C.3       1 <0>         0.0444
     24 S2          9.2603   -6.8156    3.3626 S.o2      1 <0>         2.6883
     25 O2          8.6498   -7.7284    4.2644 O.2       1 <0>        -0.9504
     26 O3          9.5682   -7.1625    2.0194 O.2       1 <0>        -0.9483
     27 C18        10.7720   -6.3046    4.1099 C.ar      1 <0>        -0.6558
     28 C19        11.8033   -5.8269    3.3209 C.ar      1 <0>        -0.0248
     29 C20        12.9895   -5.4252    3.8996 C.ar      1 <0>        -0.0789
     30 C21        13.1478   -5.5015    5.2843 C.ar      1 <0>        -0.0832
     31 C22        12.1035   -5.9844    6.0744 C.ar      1 <0>        -0.1078
     32 C23        10.9204   -6.3776    5.4836 C.ar      1 <0>        -0.0269
     33 C24        14.4164   -5.0732    5.9112 C.2       1 <0>         0.5585
     34 O4         15.3243   -4.6535    5.2206 O.2       1 <0>        -0.5278
     35 N4         14.5661   -5.1482    7.2486 N.am      1 <0>        -0.8464
     36 H2         -0.9591    1.9053    0.0259 H         1 <0>         0.1249
     37 H3          1.1563    3.1654    0.0076 H         1 <0>         0.1266
     38 H4          3.3051    1.9634   -0.0196 H         1 <0>         0.1259
     39 H5          1.2231   -1.7588   -0.0176 H         1 <0>         0.1192
     40 H6         -0.9258   -0.5567    0.0082 H         1 <0>         0.1258
     41 H7          5.3980    0.2925   -2.1233 H         1 <0>         0.1330
     42 H8          5.6210   -0.7762   -4.3483 H         1 <0>         0.1347
     43 H9          4.2308   -2.9154   -4.7666 H         1 <0>         0.1855
     44 H10         2.7694   -2.2773    1.0375 H         1 <0>         0.4019
     45 H11         4.0420   -3.3465    3.1588 H         1 <0>         0.1092
     46 H12         4.2338   -4.4231    1.7544 H         1 <0>         0.0680
     47 H13         6.4639   -5.3494    1.2621 H         1 <0>         0.0383
     48 H14         6.8302   -3.6580    0.8437 H         1 <0>         0.1075
     49 H15         8.8878   -5.0418    1.3311 H         1 <0>         0.0981
     50 H16         8.7134   -3.6300    2.4067 H         1 <0>         0.0830
     51 H17         7.3421   -5.9944    5.1113 H         1 <0>         0.0999
     52 H18         7.6934   -4.2586    4.9011 H         1 <0>         0.0815
     53 H19         5.2880   -4.6084    4.6153 H         1 <0>         0.0925
     54 H20         5.5824   -5.8926    3.4177 H         1 <0>         0.0450
     55 H21        11.6796   -5.7687    2.2496 H         1 <0>         0.1490
     56 H22        13.7939   -5.0528    3.2826 H         1 <0>         0.1489
     57 H23        12.2197   -6.0460    7.1464 H         1 <0>         0.1381
     58 H24        10.1100   -6.7473    6.0942 H         1 <0>         0.1478
     59 H25        13.8416   -5.4831    7.7997 H         1 <0>         0.4027
     60 H26        15.3984   -4.8672    7.6599 H         1 <0>         0.4098
@<TRIPOS>BOND
     1    1    6 ar
     2    1    2 ar
     3    1   36 1
     4    2    3 ar
     5    2   37 1
     6    3    4 ar
     7    3   38 1
     8    4    5 ar
     9    4    7 1
    10    5    6 ar
    11    5   39 1
    12    6   40 1
    13    7    8 1
    14    7    9 1
    15    7   14 1
    16    9   13 1
    17    9   10 2
    18   10   11 1
    19   10   41 1
    20   11   12 2
    21   11   42 1
    22   12   13 1
    23   12   43 1
    24   14   15 am
    25   14   44 1
    26   15   16 2
    27   15   17 1
    28   17   18 1
    29   17   45 1
    30   17   46 1
    31   18   23 1
    32   18   19 1
    33   19   20 1
    34   19   47 1
    35   19   48 1
    36   20   21 1
    37   20   49 1
    38   20   50 1
    39   21   22 1
    40   21   24 1
    41   22   23 1
    42   22   51 1
    43   22   52 1
    44   23   53 1
    45   23   54 1
    46   24   25 2
    47   24   26 2
    48   24   27 1
    49   27   32 ar
    50   27   28 ar
    51   28   29 ar
    52   28   55 1
    53   29   30 ar
    54   29   56 1
    55   30   31 ar
    56   30   33 1
    57   31   32 ar
    58   31   57 1
    59   32   58 1
    60   33   34 2
    61   33   35 am
    62   35   59 1
    63   35   60 1
@<TRIPOS>MOLECULE
ZINC40893801
   64    68     0     0     0
SMALL
USER_CHARGES

@<TRIPOS>ATOM
      1 C1         -0.0167    1.3781    0.0096 C.ar      1 <0>        -0.1347
      2 C2          1.1709    2.0855    0.0021 C.ar      1 <0>        -0.0149
      3 C3          2.3773    1.4107   -0.0130 C.ar      1 <0>        -0.6768
      4 C4          2.3960    0.0285   -0.0201 C.ar      1 <0>        -0.0149
      5 C5          1.2085   -0.6789   -0.0117 C.ar      1 <0>        -0.1346
      6 C6          0.0021   -0.0041    0.0020 C.ar      1 <0>        -0.0227
      7 C7         -1.2926   -0.7753    0.0107 C.3       1 <0>        -0.1010
      8 C8         -1.7450   -1.0285   -1.4288 C.3       1 <0>         0.1233
      9 N1         -3.0037   -1.7782   -1.4204 N.am      1 <0>        -0.7320
     10 C9         -3.5942   -2.1168   -2.5836 C.2       1 <0>         0.5205
     11 O1         -3.0836   -1.8008   -3.6374 O.2       1 <0>        -0.5324
     12 C10        -4.8889   -2.8880   -2.5749 C.3       1 <0>        -0.1225
     13 H1         -5.6516   -2.3124   -2.0505 H         1 <0>         0.1011
     14 C11        -4.6809   -4.2273   -1.8642 C.3       1 <0>        -0.1069
     15 C12        -6.0030   -4.9971   -1.8260 C.3       1 <0>        -0.1339
     16 C13        -6.4680   -5.2770   -3.2585 C.3       1 <0>         0.1406
     17 N2         -6.5310   -4.0056   -3.9922 N.pl3     1 <0>        -0.6756
     18 C14        -5.3416   -3.1433   -4.0160 C.3       1 <0>         0.1654
     19 C15        -7.6990   -3.6238   -4.6544 C.ar      1 <0>         0.1680
     20 C16        -8.6605   -2.8728   -3.9886 C.ar      1 <0>        -0.1012
     21 C17        -9.8148   -2.4945   -4.6403 C.ar      1 <0>        -0.0792
     22 C18       -10.0183   -2.8648   -5.9689 C.ar      1 <0>        -0.0143
     23 C19        -9.0533   -3.6179   -6.6368 C.ar      1 <0>        -0.0959
     24 C20        -7.8969   -3.9907   -5.9827 C.ar      1 <0>         0.0902
     25 F1         -6.9586   -4.7159   -6.6300 F         1 <0>        -0.1255
     26 C21       -11.2600   -2.4588   -6.6709 C.2       1 <0>         0.2993
     27 N3        -11.5749   -2.7567   -7.9446 N.2       1 <0>        -0.5349
     28 C22       -12.7352   -2.2487   -8.2477 C.2       1 <0>         0.3296
     29 O2        -13.2098   -1.6030   -7.1746 O.3       1 <0>        -0.1006
     30 N4        -12.2363   -1.7545   -6.1523 N.2       1 <0>        -0.3311
     31 C23       -13.4269   -2.3670   -9.5813 C.3       1 <0>        -0.0981
     32 C24       -14.6896   -1.5309   -9.7988 C.3       1 <0>        -0.1544
     33 C25       -14.7982   -3.0450   -9.6081 C.3       1 <0>        -0.1468
     34 S1          3.8911    2.3124   -0.0238 S.o2      1 <0>         2.7008
     35 O3          4.8717    1.4529   -0.5884 O.2       1 <0>        -0.9619
     36 O4          3.5973    3.5927   -0.5658 O.2       1 <0>        -0.9619
     37 N5          4.3274    2.5556    1.5551 N.pl3     1 <0>        -1.2498
     38 H2         -0.9591    1.9053    0.0259 H         1 <0>         0.1358
     39 H3          1.1563    3.1654    0.0076 H         1 <0>         0.1451
     40 H4          3.3385   -0.4987   -0.0326 H         1 <0>         0.1452
     41 H5          1.2231   -1.7588   -0.0179 H         1 <0>         0.1360
     42 H6         -1.1443   -1.7285    0.5180 H         1 <0>         0.0874
     43 H7         -2.0551   -0.1993    0.5352 H         1 <0>         0.0873
     44 H8         -1.8934   -0.0752   -1.9361 H         1 <0>         0.0726
     45 H9         -0.9826   -1.6044   -1.9533 H         1 <0>         0.0728
     46 H10        -3.4120   -2.0309   -0.5776 H         1 <0>         0.4015
     47 H11        -3.9355   -4.8123   -2.4029 H         1 <0>         0.0706
     48 H12        -4.3353   -4.0483   -0.8461 H         1 <0>         0.0672
     49 H13        -5.8596   -5.9405   -1.2991 H         1 <0>         0.0769
     50 H14        -6.7557   -4.4019   -1.3089 H         1 <0>         0.0686
     51 H15        -5.7607   -5.9466   -3.7480 H         1 <0>         0.0576
     52 H16        -7.4560   -5.7369   -3.2387 H         1 <0>         0.0732
     53 H17        -5.5863   -2.1955   -4.4955 H         1 <0>         0.0771
     54 H18        -4.5426   -3.6387   -4.5677 H         1 <0>         0.0668
     55 H19        -8.5032   -2.5857   -2.9594 H         1 <0>         0.1421
     56 H20       -10.5615   -1.9115   -4.1217 H         1 <0>         0.1403
     57 H21        -9.2091   -3.9058   -7.6659 H         1 <0>         0.1524
     58 H22       -12.7718   -2.5223  -10.4385 H         1 <0>         0.1552
     59 H23       -15.0200   -0.8952   -8.9773 H         1 <0>         0.1090
     60 H24       -14.8654   -1.1357  -10.7993 H         1 <0>         0.1175
     61 H25       -15.0454   -3.6460  -10.4832 H         1 <0>         0.1186
     62 H26       -15.2000   -3.4055   -8.6612 H         1 <0>         0.1044
     63 H27         3.7682    2.2150    2.2708 H         1 <0>         0.4166
     64 H28         5.1421    3.0386    1.7642 H         1 <0>         0.4219
@<TRIPOS>BOND
     1    1    6 ar
     2    1    2 ar
     3    1   38 1
     4    2    3 ar
     5    2   39 1
     6    3    4 ar
     7    3   34 1
     8    4    5 ar
     9    4   40 1
    10    5    6 ar
    11    5   41 1
    12    6    7 1
    13    7    8 1
    14    7   42 1
    15    7   43 1
    16    8    9 1
    17    8   44 1
    18    8   45 1
    19    9   10 am
    20    9   46 1
    21   10   11 2
    22   10   12 1
    23   12   13 1
    24   12   18 1
    25   12   14 1
    26   14   15 1
    27   14   47 1
    28   14   48 1
    29   15   16 1
    30   15   49 1
    31   15   50 1
    32   16   17 1
    33   16   51 1
    34   16   52 1
    35   17   18 1
    36   17   19 1
    37   18   53 1
    38   18   54 1
    39   19   24 ar
    40   19   20 ar
    41   20   21 ar
    42   20   55 1
    43   21   22 ar
    44   21   56 1
    45   22   23 ar
    46   22   26 1
    47   23   24 ar
    48   23   57 1
    49   24   25 1
    50   26   30 2
    51   26   27 1
    52   27   28 2
    53   28   29 1
    54   28   31 1
    55   29   30 1
    56   31   33 1
    57   31   32 1
    58   31   58 1
    59   32   33 1
    60   32   59 1
    61   32   60 1
    62   33   61 1
    63   33   62 1
    64   34   35 2
    65   34   36 2
    66   34   37 1
    67   37   63 1
    68   37   64 1
@<TRIPOS>MOLECULE
ZINC04106966
   69    71     0     0     0
SMALL
USER_CHARGES
N-[3-[[(3-acetylaminophenyl)methyl-(4-tert-butylphenyl)sulfonyl-amino]methyl]phenyl]acetamide
@<TRIPOS>ATOM
      1 C1         -1.6510   -6.2903   -2.6015 C.3       1 <0>        -0.1748
      2 C2         -2.3795   -5.0126   -2.2731 C.2       1 <0>         0.5103
      3 O1         -3.2400   -4.5961   -3.0195 O.2       1 <0>        -0.5227
      4 N1         -2.0747   -4.3326   -1.1501 N.am      1 <0>        -0.6773
      5 C3         -2.8170   -3.2012   -0.7941 C.ar      1 <0>         0.1459
      6 C4         -4.1731   -3.1382   -1.0867 C.ar      1 <0>        -0.1145
      7 C5         -4.9028   -2.0198   -0.7344 C.ar      1 <0>        -0.0950
      8 C6         -4.2845   -0.9633   -0.0913 C.ar      1 <0>        -0.1252
      9 C7         -2.9332   -1.0207    0.1968 C.ar      1 <0>        -0.0900
     10 C8         -2.1991   -2.1386   -0.1478 C.ar      1 <0>        -0.1282
     11 C9         -2.2622    0.1354    0.8926 C.3       1 <0>         0.1521
     12 N2         -2.1938   -0.1335    2.3311 N.pl3     1 <0>        -0.9833
     13 C10        -1.1213   -0.9742    2.8689 C.3       1 <0>         0.1668
     14 C11         0.1086   -0.1340    3.0979 C.ar      1 <0>        -0.0985
     15 C12         0.9906    0.0972    2.0583 C.ar      1 <0>        -0.1155
     16 C13         2.1178    0.8716    2.2631 C.ar      1 <0>        -0.1063
     17 C14         2.3716    1.4080    3.5103 C.ar      1 <0>        -0.1118
     18 C15         1.4906    1.1732    4.5578 C.ar      1 <0>         0.1383
     19 C16         0.3568    0.3995    4.3475 C.ar      1 <0>        -0.1185
     20 N3          1.7451    1.7148    5.8227 N.am      1 <0>        -0.6755
     21 C17         3.0113    1.8011    6.2764 C.2       1 <0>         0.5107
     22 O2          3.9359    1.4865    5.5574 O.2       1 <0>        -0.5277
     23 C18         3.2781    2.2885    7.6773 C.3       1 <0>        -0.1724
     24 S1         -3.3287    0.5128    3.3492 S.o2      1 <0>         2.6861
     25 O3         -2.6865    0.7084    4.6016 O.2       1 <0>        -0.9512
     26 O4         -3.9537    1.5736    2.6396 O.2       1 <0>        -0.9541
     27 C19        -4.5627   -0.7191    3.6029 C.ar      1 <0>        -0.6805
     28 C20        -5.6691   -0.7698    2.7758 C.ar      1 <0>        -0.0102
     29 C21        -6.6350   -1.7390    2.9722 C.ar      1 <0>        -0.1393
     30 C22        -6.4993   -2.6515    4.0016 C.ar      1 <0>        -0.0100
     31 C23        -5.3953   -2.5978    4.8318 C.ar      1 <0>        -0.1371
     32 C24        -4.4272   -1.6313    4.6327 C.ar      1 <0>        -0.0183
     33 C25        -7.5547   -3.7051    4.2186 C.3       1 <0>        -0.0382
     34 C26        -8.1520   -3.5479    5.6184 C.3       1 <0>        -0.1409
     35 C27        -8.6589   -3.5441    3.1719 C.3       1 <0>        -0.1477
     36 C28        -6.9246   -5.0930    4.0859 C.3       1 <0>        -0.1392
     37 H1         -1.8109   -7.0151   -1.8033 H         1 <0>         0.0924
     38 H2         -2.0305   -6.6940   -3.5402 H         1 <0>         0.0975
     39 H3         -0.5847   -6.0860   -2.6985 H         1 <0>         0.0921
     40 H4         -1.3408   -4.6276   -0.5886 H         1 <0>         0.4117
     41 H5         -4.6564   -3.9627   -1.5896 H         1 <0>         0.1328
     42 H6         -5.9575   -1.9702   -0.9617 H         1 <0>         0.1268
     43 H7         -4.8572   -0.0895    0.1825 H         1 <0>         0.1258
     44 H8         -1.1446   -2.1846    0.0812 H         1 <0>         0.1259
     45 H9         -1.2539    0.2612    0.4981 H         1 <0>         0.0976
     46 H10        -2.8360    1.0460    0.7201 H         1 <0>         0.1078
     47 H11        -1.4426   -1.4130    3.8135 H         1 <0>         0.0886
     48 H12        -0.8916   -1.7686    2.1588 H         1 <0>         0.0928
     49 H13         0.7964   -0.3245    1.0831 H         1 <0>         0.1221
     50 H14         2.8027    1.0535    1.4481 H         1 <0>         0.1266
     51 H15         3.2544    2.0090    3.6708 H         1 <0>         0.1366
     52 H16        -0.3305    0.2154    5.1600 H         1 <0>         0.1386
     53 H17         1.0103    2.0281    6.3729 H         1 <0>         0.4139
     54 H18         3.2838    1.4405    8.3621 H         1 <0>         0.0985
     55 H19         4.2461    2.7883    7.7098 H         1 <0>         0.0977
     56 H20         2.4972    2.9891    7.9731 H         1 <0>         0.0836
     57 H21        -5.7772   -0.0543    1.9740 H         1 <0>         0.1368
     58 H22        -7.4974   -1.7811    2.3234 H         1 <0>         0.1362
     59 H23        -5.2892   -3.3107    5.6361 H         1 <0>         0.1303
     60 H24        -3.5648   -1.5891    5.2815 H         1 <0>         0.1363
     61 H25        -8.6009   -2.5591    5.7130 H         1 <0>         0.0585
     62 H26        -8.9154   -4.3100    5.7754 H         1 <0>         0.0635
     63 H27        -7.3654   -3.6626    6.3641 H         1 <0>         0.0590
     64 H28        -8.2334   -3.6561    2.1747 H         1 <0>         0.0610
     65 H29        -9.4223   -4.3062    3.3289 H         1 <0>         0.0625
     66 H30        -9.1078   -2.5553    3.2665 H         1 <0>         0.0610
     67 H31        -6.1379   -5.2077    4.8316 H         1 <0>         0.0585
     68 H32        -7.6880   -5.8551    4.2429 H         1 <0>         0.0631
     69 H33        -6.4991   -5.2050    3.0887 H         1 <0>         0.0576
@<TRIPOS>BOND
     1    1    2 1
     2    1   37 1
     3    1   38 1
     4    1   39 1
     5    2    3 2
     6    2    4 am
     7    4    5 1
     8    4   40 1
     9    5   10 ar
    10    5    6 ar
    11    6    7 ar
    12    6   41 1
    13    7    8 ar
    14    7   42 1
    15    8    9 ar
    16    8   43 1
    17    9   10 ar
    18    9   11 1
    19   10   44 1
    20   11   12 1
    21   11   45 1
    22   11   46 1
    23   12   13 1
    24   12   24 1
    25   13   14 1
    26   13   47 1
    27   13   48 1
    28   14   19 ar
    29   14   15 ar
    30   15   16 ar
    31   15   49 1
    32   16   17 ar
    33   16   50 1
    34   17   18 ar
    35   17   51 1
    36   18   19 ar
    37   18   20 1
    38   19   52 1
    39   20   21 am
    40   20   53 1
    41   21   22 2
    42   21   23 1
    43   23   54 1
    44   23   55 1
    45   23   56 1
    46   24   25 2
    47   24   26 2
    48   24   27 1
    49   27   32 ar
    50   27   28 ar
    51   28   29 ar
    52   28   57 1
    53   29   30 ar
    54   29   58 1
    55   30   31 ar
    56   30   33 1
    57   31   32 ar
    58   31   59 1
    59   32   60 1
    60   33   34 1
    61   33   35 1
    62   33   36 1
    63   34   61 1
    64   34   62 1
    65   34   63 1
    66   35   64 1
    67   35   65 1
    68   35   66 1
    69   36   67 1
    70   36   68 1
    71   36   69 1
@<TRIPOS>MOLECULE
ZINC09490775
   63    68     0     0     0
SMALL
USER_CHARGES
N-[5-(2-furylmethylcarbamoyl)-2-(oxoBLAHyl)phenyl]thiophene-2-carboxamide
@<TRIPOS>ATOM
      1 C1          0.3023    4.0724    3.6656 C.2       1 <0>        -0.0083
      2 C2          0.9739    3.8973    2.4506 C.2       1 <0>        -0.2467
      3 C3          0.2779    3.7367    1.2941 C.2       1 <0>         0.2022
      4 N1         -1.0736    3.8048    1.2903 N.am      1 <0>        -0.4726
      5 C4         -1.7488    3.8837    2.4633 C.2       1 <0>         0.5084
      6 O1         -2.9669    3.8059    2.4658 O.2       1 <0>        -0.5449
      7 C5         -1.0617    4.0541    3.6733 C.2       1 <0>        -0.2532
      8 C6         -1.8691    3.8585    0.0629 C.3       1 <0>         0.1036
      9 C7         -1.0980    3.3602   -1.1476 C.3       1 <0>        -0.1004
     10 H1         -1.6363    3.6618   -2.0461 H         1 <0>         0.1033
     11 C8          0.2869    4.0130   -1.1727 C.3       1 <0>        -0.1196
     12 C9          1.0711    3.4809    0.0324 C.3       1 <0>        -0.0544
     13 H2          2.0534    3.9490    0.0967 H         1 <0>         0.1167
     14 C10         1.2082    1.9574   -0.1251 C.3       1 <0>         0.0654
     15 N2         -0.1389    1.3709   -0.0546 N.pl3     1 <0>        -0.5064
     16 C11        -0.9807    1.8433   -1.1582 C.3       1 <0>         0.0599
     17 C12        -0.0771   -0.0201   -0.0341 C.ar      1 <0>         0.0779
     18 C13         0.4274   -0.7088   -1.1313 C.ar      1 <0>        -0.1293
     19 C14         0.4949   -2.0842   -1.1134 C.ar      1 <0>        -0.0962
     20 C15         0.0459   -2.7926    0.0047 C.ar      1 <0>        -0.1112
     21 C16        -0.4668   -2.1029    1.1070 C.ar      1 <0>        -0.0716
     22 C17        -0.5278   -0.7223    1.0872 C.ar      1 <0>         0.1758
     23 N3         -1.0406   -0.0272    2.1903 N.am      1 <0>        -0.6530
     24 C18        -1.0660   -0.6133    3.4037 C.2       1 <0>         0.6044
     25 O2         -0.5463   -1.7022    3.5646 O.2       1 <0>        -0.5005
     26 C19        -1.7193    0.0604    4.5294 C.2       1 <0>        -0.2696
     27 C20        -1.8552   -0.3639    5.8420 C.2       1 <0>        -0.0643
     28 C21        -2.5203    0.4725    6.7036 C.2       1 <0>        -0.1818
     29 C22        -3.0049    1.6541    6.2395 C.2       1 <0>        -0.1906
     30 S1         -2.5400    1.6440    4.5694 S.3       1 <0>         0.1992
     31 C23         0.1126   -4.2663    0.0211 C.2       1 <0>         0.5616
     32 O3         -0.2786   -4.8818    0.9941 O.2       1 <0>        -0.5217
     33 N4          0.6071   -4.9304   -1.0423 N.am      1 <0>        -0.7257
     34 C24         0.6733   -6.3938   -1.0259 C.3       1 <0>         0.2038
     35 C25         1.2609   -6.8846   -2.3240 C.2       1 <0>        -0.0424
     36 C26         2.5676   -7.0907   -2.5678 C.2       1 <0>        -0.1804
     37 C27         2.6683   -7.5473   -3.9021 C.2       1 <0>        -0.2180
     38 C28         1.4170   -7.5928   -4.3938 C.2       1 <0>        -0.0265
     39 O4          0.5682   -7.1959   -3.4317 O.3       1 <0>        -0.1712
     40 H3          0.8545    4.2199    4.5819 H         1 <0>         0.1324
     41 H4          2.0537    3.8896    2.4315 H         1 <0>         0.1397
     42 H5         -1.6051    4.1691    4.5995 H         1 <0>         0.1435
     43 H6         -2.7597    3.2435    0.1920 H         1 <0>         0.0993
     44 H7         -2.1765    4.8892   -0.1139 H         1 <0>         0.0828
     45 H8          0.1867    5.0960   -1.1000 H         1 <0>         0.0800
     46 H9          0.8034    3.7496   -2.0957 H         1 <0>         0.0838
     47 H10         1.8266    1.5579    0.6787 H         1 <0>         0.0892
     48 H11         1.6613    1.7250   -1.0888 H         1 <0>         0.0598
     49 H12        -0.5421    1.5252   -2.1040 H         1 <0>         0.0531
     50 H13        -1.9750    1.4071   -1.0616 H         1 <0>         0.0847
     51 H14         0.7712   -0.1637   -1.9980 H         1 <0>         0.1322
     52 H15         0.8909   -2.6161   -1.9658 H         1 <0>         0.1275
     53 H16        -0.8148   -2.6477    1.9722 H         1 <0>         0.1707
     54 H17        -1.3773    0.8758    2.0807 H         1 <0>         0.4175
     55 H18        -1.4551   -1.3111    6.1725 H         1 <0>         0.1467
     56 H19        -2.6564    0.1949    7.7384 H         1 <0>         0.1407
     57 H20        -3.5456    2.4164    6.7807 H         1 <0>         0.1903
     58 H21         0.9192   -4.4394   -1.8185 H         1 <0>         0.4028
     59 H22         1.3010   -6.7199   -0.1967 H         1 <0>         0.1030
     60 H23        -0.3302   -6.8016   -0.9042 H         1 <0>         0.0886
     61 H24         3.3834   -6.9365   -1.8771 H         1 <0>         0.1519
     62 H25         3.5757   -7.8089   -4.4261 H         1 <0>         0.1519
     63 H26         1.1413   -7.9013   -5.3915 H         1 <0>         0.2061
@<TRIPOS>BOND
     1    1    7 2
     2    1    2 1
     3    1   40 1
     4    2    3 2
     5    2   41 1
     6    3   12 1
     7    3    4 1
     8    4    5 am
     9    4    8 1
    10    5    6 2
    11    5    7 1
    12    7   42 1
    13    8    9 1
    14    8   43 1
    15    8   44 1
    16    9   10 1
    17    9   16 1
    18    9   11 1
    19   11   12 1
    20   11   45 1
    21   11   46 1
    22   12   13 1
    23   12   14 1
    24   14   15 1
    25   14   47 1
    26   14   48 1
    27   15   16 1
    28   15   17 1
    29   16   49 1
    30   16   50 1
    31   17   22 ar
    32   17   18 ar
    33   18   19 ar
    34   18   51 1
    35   19   20 ar
    36   19   52 1
    37   20   21 ar
    38   20   31 1
    39   21   22 ar
    40   21   53 1
    41   22   23 1
    42   23   24 am
    43   23   54 1
    44   24   25 2
    45   24   26 1
    46   26   30 1
    47   26   27 2
    48   27   28 1
    49   27   55 1
    50   28   29 2
    51   28   56 1
    52   29   30 1
    53   29   57 1
    54   31   32 2
    55   31   33 am
    56   33   34 1
    57   33   58 1
    58   34   35 1
    59   34   59 1
    60   34   60 1
    61   35   39 1
    62   35   36 2
    63   36   37 1
    64   36   61 1
    65   37   38 2
    66   37   62 1
    67   38   39 1
    68   38   63 1
@<TRIPOS>MOLECULE
ZINC20765725
   73    75     0     0     0
SMALL
USER_CHARGES
N-[2-(3,4-dimethoxyphenyl)ethyl]-4-[[(2,4,6-trimethylphenyl)sulfonylamino]methyl]cyclohexane-1-carboxamide
@<TRIPOS>ATOM
      1 C1         -5.2231   -3.3504   -5.1154 C.3       1 <0>        -0.1275
      2 C2         -6.4290   -2.4468   -5.0939 C.ar      1 <0>        -0.0184
      3 C3         -7.3093   -2.4942   -4.0292 C.ar      1 <0>        -0.1571
      4 C4         -8.4150   -1.6647   -4.0091 C.ar      1 <0>         0.0329
      5 C5         -8.6405   -0.7882   -5.0539 C.ar      1 <0>        -0.6976
      6 C6         -7.7633   -0.7448   -6.1214 C.ar      1 <0>         0.0293
      7 C7         -6.6546   -1.5703   -6.1388 C.ar      1 <0>        -0.1550
      8 C8         -8.0126    0.2064   -7.2634 C.3       1 <0>        -0.1434
      9 S1        -10.0501    0.2688   -5.0285 S.o2      1 <0>         2.6912
     10 O1        -11.0952   -0.4630   -4.4028 O.2       1 <0>        -0.9565
     11 O2        -10.1760    0.8093   -6.3366 O.2       1 <0>        -0.9527
     12 N1         -9.6934    1.5367   -4.0248 N.pl3     1 <0>        -1.1203
     13 C9         -8.6265    2.4753   -4.3811 C.3       1 <0>         0.1214
     14 C10        -8.7420    3.7313   -3.5151 C.3       1 <0>        -0.0894
     15 C11        -7.7072    4.7620   -3.9709 C.3       1 <0>        -0.1305
     16 C12        -7.8227    6.0180   -3.1050 C.3       1 <0>        -0.0970
     17 C13        -7.5687    5.6533   -1.6409 C.3       1 <0>        -0.1085
     18 C14        -8.6036    4.6227   -1.1852 C.3       1 <0>        -0.1096
     19 C15        -8.4881    3.3666   -2.0511 C.3       1 <0>        -0.1190
     20 C16        -6.1854    5.0720   -1.5008 C.2       1 <0>         0.5196
     21 O3         -5.4729    4.9605   -2.4758 O.2       1 <0>        -0.5354
     22 N2         -5.7401    4.6762   -0.2918 N.am      1 <0>        -0.7437
     23 C17        -4.3954    4.1111   -0.1556 C.3       1 <0>         0.1270
     24 C18        -4.1414    3.7464    1.3085 C.3       1 <0>        -0.0864
     25 C19        -2.7581    3.1651    1.4486 C.ar      1 <0>        -0.0815
     26 C20        -2.5649    1.8032    1.3100 C.ar      1 <0>        -0.1092
     27 C21        -1.2988    1.2645    1.4429 C.ar      1 <0>        -0.1704
     28 C22        -0.2180    2.0913    1.7044 C.ar      1 <0>         0.0995
     29 C23        -0.4116    3.4628    1.8382 C.ar      1 <0>         0.1021
     30 C24        -1.6842    3.9956    1.7095 C.ar      1 <0>        -0.1660
     31 O4          0.6459    4.2784    2.0953 O.3       1 <0>        -0.3057
     32 C25         0.3724    5.6754    2.2201 C.3       1 <0>         0.0224
     33 O5          1.0291    1.5637    1.8294 O.3       1 <0>        -0.3062
     34 C26         1.1527    0.1480    1.6793 C.3       1 <0>         0.0224
     35 C27        -9.3747   -1.7163   -2.8483 C.3       1 <0>        -0.1755
     36 H1         -5.2134   -3.9705   -4.2069 H         1 <0>         0.0705
     37 H2         -4.3085   -2.7404   -5.1528 H         1 <0>         0.0779
     38 H3         -5.2673   -3.9998   -6.0022 H         1 <0>         0.0783
     39 H4         -7.1331   -3.1790   -3.2129 H         1 <0>         0.1292
     40 H5         -5.9666   -1.5330   -6.9705 H         1 <0>         0.1306
     41 H6         -7.2143    0.0975   -8.0123 H         1 <0>         0.0694
     42 H7         -8.0219    1.2392   -6.8850 H         1 <0>         0.0824
     43 H8         -8.9836   -0.0232   -7.7265 H         1 <0>         0.1065
     44 H9        -10.1453    1.5724   -3.0226 H         1 <0>         0.4372
     45 H10        -7.6488    2.0010   -4.2106 H         1 <0>         0.0597
     46 H11        -8.7201    2.7514   -5.4418 H         1 <0>         0.0847
     47 H12        -9.7517    4.1556   -3.6174 H         1 <0>         0.0821
     48 H13        -6.6975    4.3377   -3.8686 H         1 <0>         0.0953
     49 H14        -7.8898    5.0242   -5.0235 H         1 <0>         0.0646
     50 H15        -7.0786    6.7589   -3.4327 H         1 <0>         0.0703
     51 H16        -8.8324    6.4423   -3.2073 H         1 <0>         0.0695
     52 H17        -7.6369    6.5543   -1.0136 H         1 <0>         0.0966
     53 H18        -8.4210    4.3605   -0.1326 H         1 <0>         0.0676
     54 H19        -9.6133    5.0470   -1.2875 H         1 <0>         0.0780
     55 H20        -9.2322    2.6257   -1.7235 H         1 <0>         0.0658
     56 H21        -7.4784    2.9422   -1.9487 H         1 <0>         0.0648
     57 H22        -6.3863    4.7775    0.5926 H         1 <0>         0.4191
     58 H23        -4.3124    3.2080   -0.7782 H         1 <0>         0.0669
     59 H24        -3.6514    4.8520   -0.4833 H         1 <0>         0.0661
     60 H25        -4.2244    4.6495    1.9310 H         1 <0>         0.0794
     61 H26        -4.8855    3.0055    1.6362 H         1 <0>         0.0814
     62 H27        -3.4057    1.1582    1.1014 H         1 <0>         0.1268
     63 H28        -1.1512    0.1997    1.3386 H         1 <0>         0.1362
     64 H29        -1.8371    5.0598    1.8126 H         1 <0>         0.1354
     65 H30         1.3084    6.2153    2.4260 H         1 <0>         0.1034
     66 H31        -0.3344    5.8382    3.0471 H         1 <0>         0.0558
     67 H32        -0.0674    6.0480    1.2832 H         1 <0>         0.0560
     68 H33         2.2062   -0.1433    1.8033 H         1 <0>         0.1032
     69 H34         0.8064   -0.1461    0.6775 H         1 <0>         0.0560
     70 H35         0.5407   -0.3563    2.4416 H         1 <0>         0.0561
     71 H36       -10.1847   -0.9898   -3.0097 H         1 <0>         0.1051
     72 H37        -8.8401   -1.4691   -1.9193 H         1 <0>         0.0787
     73 H38        -9.7998   -2.7277   -2.7687 H         1 <0>         0.0879
@<TRIPOS>BOND
     1    1    2 1
     2    1   36 1
     3    1   37 1
     4    1   38 1
     5    2    7 ar
     6    2    3 ar
     7    3    4 ar
     8    3   39 1
     9    4    5 ar
    10    4   35 1
    11    5    6 ar
    12    5    9 1
    13    6    7 ar
    14    6    8 1
    15    7   40 1
    16    8   41 1
    17    8   42 1
    18    8   43 1
    19    9   10 2
    20    9   11 2
    21    9   12 1
    22   12   13 1
    23   12   44 1
    24   13   14 1
    25   13   45 1
    26   13   46 1
    27   14   19 1
    28   14   15 1
    29   14   47 1
    30   15   16 1
    31   15   48 1
    32   15   49 1
    33   16   17 1
    34   16   50 1
    35   16   51 1
    36   17   18 1
    37   17   20 1
    38   17   52 1
    39   18   19 1
    40   18   53 1
    41   18   54 1
    42   19   55 1
    43   19   56 1
    44   20   21 2
    45   20   22 am
    46   22   23 1
    47   22   57 1
    48   23   24 1
    49   23   58 1
    50   23   59 1
    51   24   25 1
    52   24   60 1
    53   24   61 1
    54   25   30 ar
    55   25   26 ar
    56   26   27 ar
    57   26   62 1
    58   27   28 ar
    59   27   63 1
    60   28   29 ar
    61   28   33 1
    62   29   30 ar
    63   29   31 1
    64   30   64 1
    65   31   32 1
    66   32   65 1
    67   32   66 1
    68   32   67 1
    69   33   34 1
    70   34   68 1
    71   34   69 1
    72   34   70 1
    73   35   71 1
    74   35   72 1
    75   35   73 1
@<TRIPOS>MOLECULE
ZINC33630251
   67    72     0     0     0
SMALL
USER_CHARGES

@<TRIPOS>ATOM
      1 C1          0.2419    1.8263    0.0575 C.3       1 <0>        -0.1163
      2 C2          0.2797    0.3227   -0.0371 C.ar      1 <0>        -0.0639
      3 C3          0.3487   -0.2908   -1.2730 C.ar      1 <0>        -0.1122
      4 C4          0.3839   -1.6701   -1.3605 C.ar      1 <0>        -0.0953
      5 C5          0.3501   -2.4397   -0.2120 C.ar      1 <0>        -0.1140
      6 C6          0.2811   -1.8321    1.0262 C.ar      1 <0>        -0.0914
      7 C7          0.2510   -0.4470    1.1176 C.ar      1 <0>         0.1020
      8 N1          0.1868    0.1729    2.3735 N.am      1 <0>        -0.5485
      9 C8         -0.9899    0.4780    3.0118 C.2       1 <0>         0.5849
     10 O1         -2.1039    0.0877    2.7359 O.2       1 <0>        -0.4293
     11 C9         -0.6083    1.3646    4.0829 C.3       1 <0>        -0.2015
     12 H1         -0.3639    2.2851    3.5527 H         1 <0>         0.1204
     13 C10        -1.1035    1.8629    5.3777 C.3       1 <0>         0.1409
     14 H2         -1.3915    1.0368    6.0280 H         1 <0>         0.1590
     15 N2          0.1018    2.5789    5.9216 N.4       1 <0>        -0.5038
     16 C11         1.3111    2.0065    5.2579 C.3       1 <0>         0.0050
     17 C12         0.7980    0.7743    4.4975 C.3       1 <0>        -0.1048
     18 H3          0.7458   -0.1309    5.1024 H         1 <0>         0.1662
     19 C13         1.2884    0.5332    3.0967 C.2       1 <0>         0.5497
     20 O2          2.4264    0.6393    2.6928 O.2       1 <0>        -0.4077
     21 C14         1.9260    3.0313    4.3025 C.3       1 <0>        -0.0827
     22 C15         2.3568    4.2480    5.0804 C.ar      1 <0>        -0.1045
     23 C16         1.4735    5.2937    5.2732 C.ar      1 <0>        -0.1447
     24 C17         1.8687    6.4097    5.9868 C.ar      1 <0>        -0.1137
     25 C18         3.1471    6.4798    6.5079 C.ar      1 <0>        -0.1109
     26 C19         4.0302    5.4338    6.3159 C.ar      1 <0>        -0.1062
     27 C20         3.6336    4.3159    5.6060 C.ar      1 <0>        -0.0788
     28 C21         2.3225    1.5831    6.2917 C.2       1 <0>         0.5110
     29 O3          2.0931    1.7579    7.4763 O.co2     1 <0>        -0.6556
     30 O4          3.3701    1.0657    5.9436 O.co2     1 <0>        -0.6120
     31 C22        -2.2539    2.8166    5.1826 C.ar      1 <0>        -0.1816
     32 C23        -2.4942    3.3553    3.9552 C.ar      1 <0>        -0.0203
     33 C24        -3.5511    4.2381    3.7528 C.ar      1 <0>        -0.2363
     34 C25        -4.3790    4.5900    4.7816 C.ar      1 <0>         0.1911
     35 C26        -4.1599    4.0511    6.0656 C.ar      1 <0>        -0.0753
     36 C27        -3.0858    3.1487    6.2653 C.ar      1 <0>         0.0118
     37 C28        -2.8697    2.6076    7.5444 C.ar      1 <0>        -0.1459
     38 C29        -3.6957    2.9523    8.5697 C.ar      1 <0>        -0.0710
     39 C30        -4.7555    3.8352    8.3712 C.ar      1 <0>        -0.1258
     40 C31        -4.9875    4.3878    7.1488 C.ar      1 <0>        -0.0699
     41 O5         -5.4055    5.4533    4.5685 O.3       1 <0>        -0.3035
     42 C32        -5.5638    5.9579    3.2410 C.3       1 <0>         0.0213
     43 H4          1.2593    2.2120    0.1213 H         1 <0>         0.0806
     44 H5         -0.2464    2.2339   -0.8277 H         1 <0>         0.0777
     45 H6         -0.3147    2.1205    0.9473 H         1 <0>         0.0513
     46 H7          0.3748    0.3077   -2.1716 H         1 <0>         0.1333
     47 H8          0.4374   -2.1475   -2.3278 H         1 <0>         0.1325
     48 H9          0.3774   -3.5170   -0.2835 H         1 <0>         0.1344
     49 H10         0.2545   -2.4337    1.9228 H         1 <0>         0.1293
     50 H11         0.0345    3.5647    5.7175 H         1 <0>         0.4163
     51 H12         2.7914    2.5920    3.8064 H         1 <0>         0.1340
     52 H13         1.1869    3.3207    3.5554 H         1 <0>         0.0742
     53 H14         0.4747    5.2388    4.8661 H         1 <0>         0.1131
     54 H15         1.1788    7.2269    6.1368 H         1 <0>         0.1250
     55 H16         3.4562    7.3521    7.0648 H         1 <0>         0.1260
     56 H17         5.0291    5.4888    6.7227 H         1 <0>         0.1285
     57 H18         4.3223    3.4970    5.4591 H         1 <0>         0.1368
     58 H19        -1.8542    3.0935    3.1256 H         1 <0>         0.1240
     59 H20        -3.7190    4.6510    2.7691 H         1 <0>         0.1398
     60 H21        -2.0527    1.9216    7.7126 H         1 <0>         0.1288
     61 H22        -3.5276    2.5352    9.5516 H         1 <0>         0.1341
     62 H23        -5.3966    4.0921    9.2015 H         1 <0>         0.1325
     63 H24        -5.8120    5.0715    7.0099 H         1 <0>         0.1383
     64 H25        -4.6627    6.4960    2.9469 H         1 <0>         0.0628
     65 H26        -5.7318    5.1280    2.5545 H         1 <0>         0.0634
     66 H27        -6.4178    6.6344    3.2089 H         1 <0>         0.1094
     67 H28         0.1611    2.4389    6.9190 H         1 <0>         0.4379
@<TRIPOS>BOND
     1    1    2 1
     2    1   43 1
     3    1   44 1
     4    1   45 1
     5    2    7 ar
     6    2    3 ar
     7    3    4 ar
     8    3   46 1
     9    4    5 ar
    10    4   47 1
    11    5    6 ar
    12    5   48 1
    13    6    7 ar
    14    6   49 1
    15    7    8 1
    16    8   19 am
    17    8    9 am
    18    9   10 2
    19    9   11 1
    20   11   12 1
    21   11   17 1
    22   11   13 1
    23   13   14 1
    24   13   15 1
    25   13   31 1
    26   15   16 1
    27   15   50 1
    28   15   67 1
    29   16   17 1
    30   16   21 1
    31   16   28 1
    32   17   18 1
    33   17   19 1
    34   19   20 2
    35   21   22 1
    36   21   51 1
    37   21   52 1
    38   22   27 ar
    39   22   23 ar
    40   23   24 ar
    41   23   53 1
    42   24   25 ar
    43   24   54 1
    44   25   26 ar
    45   25   55 1
    46   26   27 ar
    47   26   56 1
    48   27   57 1
    49   28   29 2
    50   28   30 1
    51   31   36 ar
    52   31   32 ar
    53   32   33 ar
    54   32   58 1
    55   33   34 ar
    56   33   59 1
    57   34   35 ar
    58   34   41 1
    59   35   40 ar
    60   35   36 ar
    61   36   37 ar
    62   37   38 ar
    63   37   60 1
    64   38   39 ar
    65   38   61 1
    66   39   40 ar
    67   39   62 1
    68   40   63 1
    69   41   42 1
    70   42   64 1
    71   42   65 1
    72   42   66 1
@<TRIPOS>MOLECULE
ZINC59434839
   63    66     0     0     0
SMALL
USER_CHARGES

@<TRIPOS>ATOM
      1 C1         -0.3419    1.6438   -0.4117 C.3       1 <0>         0.0265
      2 O1         -0.2443    0.2231   -0.2923 O.3       1 <0>        -0.3180
      3 C2          0.4191   -0.4348   -1.2792 C.ar      1 <0>         0.1299
      4 C3          0.9698    0.2730   -2.3377 C.ar      1 <0>        -0.2062
      5 C4          1.6440   -0.3980   -3.3395 C.ar      1 <0>        -0.0600
      6 C5          1.7698   -1.7740   -3.2880 C.ar      1 <0>        -0.1362
      7 C6          1.2215   -2.4818   -2.2344 C.ar      1 <0>        -0.0637
      8 C7          0.5516   -1.8148   -1.2270 C.ar      1 <0>        -0.1521
      9 C8          2.5054   -2.5036   -4.3824 C.3       1 <0>         0.2029
     10 H1          2.5638   -1.8688   -5.2666 H         1 <0>         0.1052
     11 C9          3.9185   -2.8462   -3.9064 C.3       1 <0>        -0.1728
     12 C10         4.6943   -3.4654   -5.0404 C.2       1 <0>         0.3388
     13 O2          4.1709   -3.6169   -6.1181 O.2       1 <0>        -0.3908
     14 C11         6.1231   -3.8954   -4.8295 C.3       1 <0>        -0.1650
     15 C12         6.6661   -4.4787   -6.1086 C.2       1 <0>         0.4791
     16 O3          5.9605   -4.5395   -7.0966 O.2       1 <0>        -0.4858
     17 N1          7.9181   -4.9274   -6.1564 N.2       1 <0>        -0.6271
     18 C13         8.3966   -5.4414   -7.2836 C.2       1 <0>         0.4321
     19 N2          9.6433   -5.9312   -7.4703 N.pl3     1 <0>        -0.6927
     20 C14        10.0270   -6.4631   -8.7616 C.3       1 <0>         0.1794
     21 H2         10.3187   -7.5069   -8.6459 H         1 <0>         0.1127
     22 C15         8.8625   -6.3717   -9.7701 C.3       1 <0>        -0.1612
     23 S1          7.5613   -5.6060   -8.7272 S.3       1 <0>         0.0519
     24 C16        11.1995   -5.6782   -9.2909 C.ar      1 <0>        -0.1147
     25 C17        11.2618   -4.3114   -9.0939 C.ar      1 <0>        -0.0995
     26 C18        12.3373   -3.5914   -9.5795 C.ar      1 <0>        -0.1159
     27 C19        13.3507   -4.2383  -10.2617 C.ar      1 <0>        -0.1092
     28 C20        13.2888   -5.6053  -10.4579 C.ar      1 <0>        -0.1169
     29 C21        12.2154   -6.3259   -9.9686 C.ar      1 <0>        -0.1014
     30 N3          1.7890   -3.7378   -4.7136 N.am      1 <0>        -0.7148
     31 C22         0.7725   -3.7102   -5.5982 C.2       1 <0>         0.5688
     32 O4          0.5081   -2.6809   -6.1883 O.2       1 <0>        -0.5285
     33 C23        -0.0210   -4.9319   -5.8508 C.ar      1 <0>        -0.1317
     34 C24         0.2764   -6.1139   -5.1706 C.ar      1 <0>        -0.0866
     35 C25        -0.4682   -7.2502   -5.4106 C.ar      1 <0>        -0.1276
     36 C26        -1.5074   -7.2200   -6.3235 C.ar      1 <0>        -0.0950
     37 C27        -1.8071   -6.0517   -7.0014 C.ar      1 <0>        -0.1269
     38 C28        -1.0743   -4.9067   -6.7662 C.ar      1 <0>        -0.0600
     39 H3          0.6584    2.0764   -0.4310 H         1 <0>         0.0563
     40 H4         -0.8646    1.8958   -1.3343 H         1 <0>         0.0563
     41 H5         -0.8939    2.0428    0.4393 H         1 <0>         0.1010
     42 H6          0.8711    1.3477   -2.3788 H         1 <0>         0.1292
     43 H7          2.0729    0.1525   -4.1637 H         1 <0>         0.1266
     44 H8          1.3208   -3.5565   -2.1966 H         1 <0>         0.1251
     45 H9          0.1273   -2.3676   -0.4019 H         1 <0>         0.1306
     46 H10         4.4211   -1.9371   -3.5761 H         1 <0>         0.1168
     47 H11         3.8616   -3.5516   -3.0774 H         1 <0>         0.1055
     48 H12         6.7232   -3.0327   -4.5401 H         1 <0>         0.1266
     49 H13         6.1638   -4.6472   -4.0413 H         1 <0>         0.1262
     50 H14        10.2808   -5.9259   -6.7392 H         1 <0>         0.4167
     51 H15         9.1221   -5.7317  -10.6134 H         1 <0>         0.1244
     52 H16         8.5579   -7.3617  -10.1096 H         1 <0>         0.1262
     53 H17        10.4701   -3.8059   -8.5609 H         1 <0>         0.1190
     54 H18        12.3857   -2.5234   -9.4262 H         1 <0>         0.1259
     55 H19        14.1907   -3.6757  -10.6417 H         1 <0>         0.1261
     56 H20        14.0804   -6.1106  -10.9912 H         1 <0>         0.1277
     57 H21        12.1689   -7.3944  -10.1187 H         1 <0>         0.1274
     58 H22         2.0462   -4.5748   -4.2963 H         1 <0>         0.3960
     59 H23         1.0878   -6.1389   -4.4583 H         1 <0>         0.1225
     60 H24        -0.2391   -8.1654   -4.8850 H         1 <0>         0.1283
     61 H25        -2.0870   -8.1124   -6.5080 H         1 <0>         0.1272
     62 H26        -2.6193   -6.0349   -7.7130 H         1 <0>         0.1300
     63 H27        -1.3123   -3.9941   -7.2924 H         1 <0>         0.1356
@<TRIPOS>BOND
     1    1    2 1
     2    1   39 1
     3    1   40 1
     4    1   41 1
     5    2    3 1
     6    3    8 ar
     7    3    4 ar
     8    4    5 ar
     9    4   42 1
    10    5    6 ar
    11    5   43 1
    12    6    7 ar
    13    6    9 1
    14    7    8 ar
    15    7   44 1
    16    8   45 1
    17    9   10 1
    18    9   11 1
    19    9   30 1
    20   11   12 1
    21   11   46 1
    22   11   47 1
    23   12   13 2
    24   12   14 1
    25   14   15 1
    26   14   48 1
    27   14   49 1
    28   15   17 1
    29   15   16 2
    30   17   18 2
    31   18   19 1
    32   18   23 1
    33   19   20 1
    34   19   50 1
    35   20   21 1
    36   20   22 1
    37   20   24 1
    38   22   23 1
    39   22   51 1
    40   22   52 1
    41   24   29 ar
    42   24   25 ar
    43   25   26 ar
    44   25   53 1
    45   26   27 ar
    46   26   54 1
    47   27   28 ar
    48   27   55 1
    49   28   29 ar
    50   28   56 1
    51   29   57 1
    52   30   31 am
    53   30   58 1
    54   31   32 2
    55   31   33 1
    56   33   38 ar
    57   33   34 ar
    58   34   35 ar
    59   34   59 1
    60   35   36 ar
    61   35   60 1
    62   36   37 ar
    63   36   61 1
    64   37   38 ar
    65   37   62 1
    66   38   63 1
@<TRIPOS>MOLECULE
ZINC09585613
   54    58     0     0     0
SMALL
USER_CHARGES
2-(4-benzyl-2,5-dioxo-4-phenyl-imidazolidin-1-yl)-N-(2,2-difluorobenzo[1,3]dioxol-5-yl)-acetamide
@<TRIPOS>ATOM
      1 C1          8.5270   -1.5277   -0.7043 C.ar      1 <0>        -0.1126
      2 C2          7.6069   -1.4507   -1.7331 C.ar      1 <0>        -0.1186
      3 C3          6.4411   -0.7272   -1.5651 C.ar      1 <0>        -0.1066
      4 C4          6.1951   -0.0810   -0.3681 C.ar      1 <0>        -0.1030
      5 C5          7.1175   -0.1537    0.6589 C.ar      1 <0>        -0.0932
      6 C6          8.2814   -0.8808    0.4924 C.ar      1 <0>        -0.0790
      7 C7          4.9241    0.7077   -0.1849 C.3       1 <0>        -0.0728
      8 C8          3.8337   -0.2058    0.3786 C.3       1 <0>         0.1790
      9 C9          4.2325   -0.7337    1.7424 C.2       1 <0>         0.5481
     10 O1          4.4539   -0.0852    2.7426 O.2       1 <0>        -0.4524
     11 N1          4.2879   -2.0770    1.6078 N.am      1 <0>        -0.5605
     12 C10         3.9858   -2.4619    0.3626 C.2       1 <0>         0.7151
     13 O2          3.9701   -3.6215   -0.0011 O.2       1 <0>        -0.5363
     14 N2          3.7013   -1.4220   -0.4420 N.am      1 <0>        -0.7093
     15 C11         4.6387   -2.9980    2.6916 C.3       1 <0>         0.1021
     16 C12         6.1295   -3.2185    2.7008 C.2       1 <0>         0.4972
     17 O3          6.8300   -2.6611    1.8824 O.2       1 <0>        -0.4788
     18 N3          6.6843   -4.0351    3.6183 N.am      1 <0>        -0.6677
     19 C13         8.0532   -4.3273    3.5593 C.ar      1 <0>         0.1737
     20 C14         8.6921   -4.4151    2.3297 C.ar      1 <0>        -0.0982
     21 C15        10.0435   -4.6968    2.2702 C.ar      1 <0>        -0.0586
     22 C16        10.7622   -4.9055    3.4363 C.ar      1 <0>         0.0106
     23 C17        10.1229   -4.8236    4.6710 C.ar      1 <0>         0.0486
     24 C18         8.7697   -4.5347    4.7299 C.ar      1 <0>        -0.1102
     25 O4         11.0389   -5.0659    5.6537 O.3       1 <0>        -0.2856
     26 C19        12.3257   -4.8931    5.0312 C.3       1 <0>         0.5714
     27 O5         12.0795   -5.1996    3.6461 O.3       1 <0>        -0.2845
     28 F1         12.7664   -3.5728    5.1718 F         1 <0>        -0.1525
     29 F2         13.2586   -5.7819    5.5761 F         1 <0>        -0.1149
     30 C20         2.5190    0.5266    0.4571 C.ar      1 <0>        -0.1025
     31 C21         1.3315   -0.1689    0.3263 C.ar      1 <0>        -0.0991
     32 C22         0.1255    0.5029    0.3984 C.ar      1 <0>        -0.1173
     33 C23         0.1070    1.8700    0.6021 C.ar      1 <0>        -0.1055
     34 C24         1.2945    2.5654    0.7339 C.ar      1 <0>        -0.1161
     35 C25         2.5005    1.8938    0.6604 C.ar      1 <0>        -0.0919
     36 H1          9.4375   -2.0936   -0.8353 H         1 <0>         0.1154
     37 H2          7.7988   -1.9561   -2.6681 H         1 <0>         0.1171
     38 H3          5.7223   -0.6670   -2.3689 H         1 <0>         0.1146
     39 H4          6.9274    0.3547    1.5926 H         1 <0>         0.1118
     40 H5          9.0000   -0.9413    1.2963 H         1 <0>         0.1135
     41 H6          4.6024    1.1069   -1.1468 H         1 <0>         0.0979
     42 H7          5.1033    1.5298    0.5081 H         1 <0>         0.0983
     43 H8          3.4571   -1.4646   -1.3798 H         1 <0>         0.4416
     44 H9          4.3287   -2.5715    3.6456 H         1 <0>         0.1292
     45 H10         4.1315   -3.9505    2.5375 H         1 <0>         0.1338
     46 H11         6.1359   -4.4205    4.3194 H         1 <0>         0.4168
     47 H12         8.1332   -4.2580    1.4190 H         1 <0>         0.1577
     48 H13        10.5394   -4.7598    1.3129 H         1 <0>         0.1488
     49 H14         8.2722   -4.4705    5.6863 H         1 <0>         0.1487
     50 H15         1.3460   -1.2370    0.1675 H         1 <0>         0.1227
     51 H16        -0.8022   -0.0404    0.2958 H         1 <0>         0.1273
     52 H17        -0.8351    2.3956    0.6539 H         1 <0>         0.1269
     53 H18         1.2800    3.6335    0.8927 H         1 <0>         0.1294
     54 H19         3.4282    2.4371    0.7630 H         1 <0>         0.1307
@<TRIPOS>BOND
     1    1    6 ar
     2    1    2 ar
     3    1   36 1
     4    2    3 ar
     5    2   37 1
     6    3    4 ar
     7    3   38 1
     8    4    5 ar
     9    4    7 1
    10    5    6 ar
    11    5   39 1
    12    6   40 1
    13    7    8 1
    14    7   41 1
    15    7   42 1
    16    8   14 1
    17    8    9 1
    18    8   30 1
    19    9   10 2
    20    9   11 am
    21   11   12 am
    22   11   15 1
    23   12   13 2
    24   12   14 am
    25   14   43 1
    26   15   16 1
    27   15   44 1
    28   15   45 1
    29   16   17 2
    30   16   18 am
    31   18   19 1
    32   18   46 1
    33   19   24 ar
    34   19   20 ar
    35   20   21 ar
    36   20   47 1
    37   21   22 ar
    38   21   48 1
    39   22   27 1
    40   22   23 ar
    41   23   24 ar
    42   23   25 1
    43   24   49 1
    44   25   26 1
    45   26   27 1
    46   26   28 1
    47   26   29 1
    48   30   35 ar
    49   30   31 ar
    50   31   32 ar
    51   31   50 1
    52   32   33 ar
    53   32   51 1
    54   33   34 ar
    55   33   52 1
    56   34   35 ar
    57   34   53 1
    58   35   54 1
@<TRIPOS>MOLECULE
ZINC12785262
   57    61     0     0     0
SMALL
USER_CHARGES
2-[(4S)-4-(1,3-benzodioxol-5-yl)-4-methyl-2,5-dioxo-imidazolidin-1-yl]-N-[(S)-p-tolyl-(2-thienyl)methyl]acetamide
@<TRIPOS>ATOM
      1 C1         -3.2803    6.0659   -5.3013 C.3       1 <0>        -0.1187
      2 C2         -3.0393    5.5483   -3.9067 C.ar      1 <0>        -0.0770
      3 C3         -3.8302    4.5343   -3.3995 C.ar      1 <0>        -0.1157
      4 C4         -3.6089    4.0592   -2.1203 C.ar      1 <0>        -0.0942
      5 C5         -2.5963    4.5977   -1.3486 C.ar      1 <0>        -0.1010
      6 C6         -1.8087    5.6152   -1.8539 C.ar      1 <0>        -0.1027
      7 C7         -2.0276    6.0877   -3.1344 C.ar      1 <0>        -0.1149
      8 C8         -2.3549    4.0797    0.0459 C.3       1 <0>         0.2801
      9 H1         -3.2484    3.5676    0.4029 H         1 <0>         0.1169
     10 C9         -1.1962    3.1163    0.0303 C.2       1 <0>        -0.1516
     11 C10        -1.2130    1.7610    0.0173 C.2       1 <0>        -0.1415
     12 C11        -0.0126    1.0758    0.0080 C.2       1 <0>        -0.1549
     13 C12         1.1459    1.7795    0.0007 C.2       1 <0>        -0.1717
     14 S1          0.5548    3.4640    0.0154 S.3       1 <0>         0.0456
     15 N1         -2.0459    5.2010    0.9366 N.am      1 <0>        -0.7205
     16 C13        -2.2828    5.0960    2.2592 C.2       1 <0>         0.5062
     17 O1         -2.7519    4.0733    2.7120 O.2       1 <0>        -0.5133
     18 C14        -1.9649    6.2494    3.1755 C.3       1 <0>         0.0990
     19 N2         -2.3104    5.8886    4.5527 N.am      1 <0>        -0.5592
     20 C15        -1.4611    5.2981    5.4165 C.2       1 <0>         0.5430
     21 O2         -0.3110    4.9762    5.2080 O.2       1 <0>        -0.4513
     22 C16        -2.2432    5.1192    6.7026 C.3       1 <0>         0.1756
     23 N3         -3.5666    5.6826    6.3843 N.am      1 <0>        -0.7153
     24 C17        -3.5064    6.1100    5.1101 C.2       1 <0>         0.7122
     25 O3         -4.4357    6.6354    4.5292 O.2       1 <0>        -0.5329
     26 C18        -1.5870    5.8980    7.8444 C.3       1 <0>        -0.1461
     27 C19        -2.3562    3.6585    7.0556 C.ar      1 <0>        -0.0891
     28 C20        -1.3566    2.7793    6.6824 C.ar      1 <0>        -0.0909
     29 C21        -1.4555    1.4386    7.0043 C.ar      1 <0>        -0.0932
     30 C22        -2.5576    0.9727    7.7027 C.ar      1 <0>         0.0447
     31 C23        -3.5645    1.8583    8.0787 C.ar      1 <0>         0.0339
     32 C24        -3.4564    3.2015    7.7568 C.ar      1 <0>        -0.0763
     33 O4         -4.5298    1.1628    8.7479 O.3       1 <0>        -0.3058
     34 C25        -4.3020   -0.2212    8.4221 C.3       1 <0>         0.2126
     35 O5         -2.8919   -0.2777    8.1364 O.3       1 <0>        -0.3058
     36 H2         -3.9943    6.8886   -5.2652 H         1 <0>         0.0732
     37 H3         -2.3403    6.4190   -5.7253 H         1 <0>         0.0682
     38 H4         -3.6806    5.2644   -5.9222 H         1 <0>         0.0680
     39 H5         -4.6209    4.1131   -4.0027 H         1 <0>         0.1262
     40 H6         -4.2268    3.2671   -1.7241 H         1 <0>         0.1257
     41 H7         -1.0205    6.0389   -1.2493 H         1 <0>         0.1201
     42 H8         -1.4099    6.8801   -3.5306 H         1 <0>         0.1261
     43 H9         -2.1503    1.2245    0.0184 H         1 <0>         0.1318
     44 H10         0.0021   -0.0041    0.0020 H         1 <0>         0.1343
     45 H11         2.1627    1.4156   -0.0113 H         1 <0>         0.1859
     46 H12        -1.6707    6.0189    0.5745 H         1 <0>         0.4045
     47 H13        -0.9008    6.4782    3.1160 H         1 <0>         0.1303
     48 H14        -2.5418    7.1234    2.8732 H         1 <0>         0.1327
     49 H15        -4.3313    5.7374    6.9785 H         1 <0>         0.4420
     50 H16        -1.5483    6.9565    7.5870 H         1 <0>         0.0759
     51 H17        -2.1702    5.7669    8.7559 H         1 <0>         0.0854
     52 H18        -0.5751    5.5256    8.0038 H         1 <0>         0.0899
     53 H19        -0.4964    3.1408    6.1385 H         1 <0>         0.1540
     54 H20        -0.6732    0.7540    6.7114 H         1 <0>         0.1419
     55 H21        -4.2336    3.8913    8.0509 H         1 <0>         0.1356
     56 H22        -4.8823   -0.5088    7.5454 H         1 <0>         0.0869
     57 H23        -4.5471   -0.8617    9.2693 H         1 <0>         0.1353
@<TRIPOS>BOND
     1    1    2 1
     2    1   36 1
     3    1   37 1
     4    1   38 1
     5    2    7 ar
     6    2    3 ar
     7    3    4 ar
     8    3   39 1
     9    4    5 ar
    10    4   40 1
    11    5    6 ar
    12    5    8 1
    13    6    7 ar
    14    6   41 1
    15    7   42 1
    16    8    9 1
    17    8   10 1
    18    8   15 1
    19   10   14 1
    20   10   11 2
    21   11   12 1
    22   11   43 1
    23   12   13 2
    24   12   44 1
    25   13   14 1
    26   13   45 1
    27   15   16 am
    28   15   46 1
    29   16   17 2
    30   16   18 1
    31   18   19 1
    32   18   47 1
    33   18   48 1
    34   19   24 am
    35   19   20 am
    36   20   21 2
    37   20   22 1
    38   22   23 1
    39   22   26 1
    40   22   27 1
    41   23   24 am
    42   23   49 1
    43   24   25 2
    44   26   50 1
    45   26   51 1
    46   26   52 1
    47   27   32 ar
    48   27   28 ar
    49   28   29 ar
    50   28   53 1
    51   29   30 ar
    52   29   54 1
    53   30   35 1
    54   30   31 ar
    55   31   32 ar
    56   31   33 1
    57   32   55 1
    58   33   34 1
    59   34   35 1
    60   34   56 1
    61   34   57 1
@<TRIPOS>MOLECULE
ZINC20571416
   52    56     0     0     0
SMALL
USER_CHARGES
N-(6,7-dihydro-[1,4]dioxino[2,3-f][1,3]benzothiazol-2-yl)-4-(p-tolylsulfonylamino)benzamide
@<TRIPOS>ATOM
      1 C1          1.6763   -1.3638   -5.7429 C.3       1 <0>        -0.1304
      2 C2          1.2611   -1.0235   -4.3347 C.ar      1 <0>        -0.0221
      3 C3          2.2081   -0.9679   -3.3292 C.ar      1 <0>        -0.1413
      4 C4          1.8273   -0.6558   -2.0376 C.ar      1 <0>        -0.0122
      5 C5          0.4996   -0.3983   -1.7516 C.ar      1 <0>        -0.6855
      6 C6         -0.4481   -0.4585   -2.7561 C.ar      1 <0>        -0.0128
      7 C7         -0.0666   -0.7664   -4.0486 C.ar      1 <0>        -0.1427
      8 S1          0.0142   -0.0003   -0.1051 S.o2      1 <0>         2.6920
      9 O1          1.0676   -0.4332    0.7447 O.2       1 <0>        -0.9478
     10 O2         -1.3229   -0.4572    0.0457 O.2       1 <0>        -0.9463
     11 N1         -0.0347    1.6513    0.0053 N.pl3     1 <0>        -1.0711
     12 C8          1.1247    2.3952   -0.1834 C.ar      1 <0>         0.1899
     13 C9          2.3104    2.0015    0.4311 C.ar      1 <0>        -0.1654
     14 C10         3.4606    2.7329    0.2425 C.ar      1 <0>        -0.0546
     15 C11         3.4354    3.8783   -0.5590 C.ar      1 <0>        -0.1492
     16 C12         2.2418    4.2739   -1.1704 C.ar      1 <0>        -0.0291
     17 C13         1.0962    3.5355   -0.9817 C.ar      1 <0>        -0.1385
     18 C14         4.6649    4.6676   -0.7587 C.2       1 <0>         0.5694
     19 O3          4.6415    5.6637   -1.4557 O.2       1 <0>        -0.4936
     20 N2          5.8147    4.2849   -0.1687 N.am      1 <0>        -0.6217
     21 C15         6.9694    5.0262   -0.3562 C.2       1 <0>         0.3655
     22 N3          8.1705    4.8158    0.1289 N.2       1 <0>        -0.5416
     23 C16         9.2159    5.6301   -0.1401 C.ar      1 <0>         0.1107
     24 C17        10.5489    5.5162    0.3170 C.ar      1 <0>        -0.0696
     25 C18        11.5055    6.4366   -0.0487 C.ar      1 <0>         0.0706
     26 C19        11.1863    7.5066   -0.8846 C.ar      1 <0>         0.0712
     27 C20         9.8880    7.6452   -1.3488 C.ar      1 <0>        -0.0569
     28 C21         8.9338    6.7286   -0.9822 C.ar      1 <0>        -0.1775
     29 S2          7.2048    6.5083   -1.3268 S.3       1 <0>         0.1107
     30 O4         12.1290    8.4151   -1.2546 O.3       1 <0>        -0.3004
     31 C22        13.3275    8.4530   -0.4718 C.3       1 <0>         0.0166
     32 C23        13.8065    7.0104   -0.2601 C.3       1 <0>         0.0187
     33 O5         12.7769    6.2899    0.4245 O.3       1 <0>        -0.3033
     34 H1          2.7626   -1.5341   -5.7738 H         1 <0>         0.0727
     35 H2          1.4164   -0.5312   -6.4131 H         1 <0>         0.0800
     36 H3          1.1529   -2.2745   -6.0695 H         1 <0>         0.0802
     37 H4          3.2455   -1.1688   -3.5527 H         1 <0>         0.1342
     38 H5          2.5671   -0.6127   -1.2519 H         1 <0>         0.1416
     39 H6         -1.4860   -0.2616   -2.5318 H         1 <0>         0.1395
     40 H7         -0.8065   -0.8095   -4.8343 H         1 <0>         0.1344
     41 H8         -0.9844    2.1598    0.2279 H         1 <0>         0.4600
     42 H9          2.3282    1.1190    1.0534 H         1 <0>         0.1671
     43 H10         4.3810    2.4247    0.7161 H         1 <0>         0.1357
     44 H11         2.2192    5.1580   -1.7904 H         1 <0>         0.1459
     45 H12         0.1739    3.8406   -1.4537 H         1 <0>         0.1410
     46 H13         5.8360    3.3838    0.4618 H         1 <0>         0.4542
     47 H14        10.8210    4.6948    0.9633 H         1 <0>         0.1450
     48 H15         9.6281    8.4700   -1.9957 H         1 <0>         0.1464
     49 H16        14.0956    9.0323   -1.0051 H         1 <0>         0.1280
     50 H17        13.1173    8.9281    0.4978 H         1 <0>         0.0821
     51 H18        14.0079    6.5440   -1.2358 H         1 <0>         0.0816
     52 H19        14.7274    7.0144    0.3414 H         1 <0>         0.1282
@<TRIPOS>BOND
     1    1    2 1
     2    1   34 1
     3    1   35 1
     4    1   36 1
     5    2    7 ar
     6    2    3 ar
     7    3    4 ar
     8    3   37 1
     9    4    5 ar
    10    4   38 1
    11    5    6 ar
    12    5    8 1
    13    6    7 ar
    14    6   39 1
    15    7   40 1
    16    8    9 2
    17    8   10 2
    18    8   11 1
    19   11   12 1
    20   11   41 1
    21   12   17 ar
    22   12   13 ar
    23   13   14 ar
    24   13   42 1
    25   14   15 ar
    26   14   43 1
    27   15   16 ar
    28   15   18 1
    29   16   17 ar
    30   16   44 1
    31   17   45 1
    32   18   19 2
    33   18   20 am
    34   20   21 1
    35   20   46 1
    36   21   29 1
    37   21   22 2
    38   22   23 1
    39   23   28 ar
    40   23   24 ar
    41   24   25 ar
    42   24   47 1
    43   25   33 1
    44   25   26 ar
    45   26   27 ar
    46   26   30 1
    47   27   28 ar
    48   27   48 1
    49   28   29 1
    50   30   31 1
    51   31   32 1
    52   31   49 1
    53   31   50 1
    54   32   33 1
    55   32   51 1
    56   32   52 1
@<TRIPOS>MOLECULE
ZINC02888154
   58    61     0     0     0
SMALL
USER_CHARGES

@<TRIPOS>ATOM
      1 C1         -3.1685    0.3344   -0.1813 C.3       1 <0>        -0.1099
      2 C2         -1.7691   -0.1630    0.0740 C.ar      1 <0>        -0.0993
      3 C3         -0.7927   -0.0014   -0.8919 C.ar      1 <0>        -0.0981
      4 C4          0.4930   -0.4552   -0.6634 C.ar      1 <0>        -0.1828
      5 C5          0.8066   -1.0743    0.5356 C.ar      1 <0>         0.0940
      6 C6         -0.1765   -1.2375    1.5094 C.ar      1 <0>         0.1333
      7 C7         -1.4633   -0.7743    1.2750 C.ar      1 <0>        -0.0974
      8 N1          0.1343   -1.8628    2.7228 N.am      1 <0>        -0.6295
      9 C8         -0.8513   -2.3559    3.4986 C.2       1 <0>         0.5950
     10 O1         -2.0028   -2.3321    3.1074 O.2       1 <0>        -0.4774
     11 C9         -0.5342   -2.9233    4.8195 C.2       1 <0>         0.1250
     12 C10        -0.2123   -4.2460    4.9341 C.2       1 <0>        -0.1960
     13 S1          0.0713   -4.4003    6.6903 S.3       1 <0>         0.1994
     14 C11        -0.2569   -2.7085    7.1346 C.2       1 <0>         0.3367
     15 N2         -0.5569   -2.1196    5.9354 N.am      1 <0>        -0.4689
     16 C12        -0.8548   -0.7857    5.9710 C.2       1 <0>         0.5210
     17 O2         -1.1366   -0.1947    4.9408 O.2       1 <0>        -0.4860
     18 C13        -0.8366   -0.1006    7.1874 C.2       1 <0>        -0.2864
     19 C14        -0.5207   -0.7671    8.3390 C.2       1 <0>         0.2074
     20 N3         -0.2442   -2.0676    8.2764 N.2       1 <0>        -0.4811
     21 C15        -0.4965   -0.0425    9.6602 C.3       1 <0>        -0.1083
     22 C16        -0.1230   -5.2774    3.8820 C.2       1 <0>         0.6077
     23 O3         -0.2601   -4.9681    2.7143 O.2       1 <0>        -0.4686
     24 N4          0.1106   -6.5621    4.2159 N.am      1 <0>        -0.6495
     25 C17         0.3011   -7.5205    3.2162 C.ar      1 <0>         0.1459
     26 C18         0.6474   -7.1256    1.9300 C.ar      1 <0>        -0.1369
     27 C19         0.8348   -8.0749    0.9449 C.ar      1 <0>        -0.0974
     28 C20         0.6781   -9.4176    1.2375 C.ar      1 <0>        -0.1300
     29 C21         0.3335   -9.8140    2.5165 C.ar      1 <0>        -0.0645
     30 C22         0.1502   -8.8700    3.5080 C.ar      1 <0>        -0.1138
     31 C23        -0.2187   -9.3034    4.9034 C.3       1 <0>        -0.1165
     32 C24         0.1634  -11.2781    2.8305 C.3       1 <0>        -0.1171
     33 O4          2.0706   -1.5219    0.7615 O.3       1 <0>        -0.3232
     34 C25         2.9976   -1.4214   -0.3214 C.3       1 <0>         0.0307
     35 H1         -3.2547    1.3668    0.1576 H         1 <0>         0.0695
     36 H2         -3.3832    0.2833   -1.2488 H         1 <0>         0.0665
     37 H3         -3.8799   -0.2871    0.3625 H         1 <0>         0.0673
     38 H4         -1.0354    0.4803   -1.8275 H         1 <0>         0.1267
     39 H5          1.2531   -0.3273   -1.4200 H         1 <0>         0.1331
     40 H6         -2.2268   -0.8955    2.0292 H         1 <0>         0.1617
     41 H7          1.0590   -1.9411    3.0051 H         1 <0>         0.4140
     42 H8         -1.0711    0.9531    7.2187 H         1 <0>         0.1724
     43 H9         -1.4832   -0.0933   10.1205 H         1 <0>         0.0963
     44 H10         0.2358   -0.5107   10.3180 H         1 <0>         0.0903
     45 H11        -0.2246    1.0004    9.4977 H         1 <0>         0.0913
     46 H12         0.1466   -6.8217    5.1498 H         1 <0>         0.4111
     47 H13         0.7695   -6.0773    1.7008 H         1 <0>         0.1544
     48 H14         1.1036   -7.7686   -0.0552 H         1 <0>         0.1273
     49 H15         0.8249  -10.1580    0.4651 H         1 <0>         0.1247
     50 H16        -1.3039   -9.3495    4.9945 H         1 <0>         0.0754
     51 H17         0.2048  -10.2880    5.1019 H         1 <0>         0.0781
     52 H18         0.1762   -8.5862    5.6229 H         1 <0>         0.0577
     53 H19         1.1176  -11.6933    3.1550 H         1 <0>         0.0730
     54 H20        -0.5732  -11.3961    3.6252 H         1 <0>         0.0697
     55 H21        -0.1771  -11.8039    1.9385 H         1 <0>         0.0692
     56 H22         2.5900   -1.9270   -1.1968 H         1 <0>         0.0574
     57 H23         3.1697   -0.3709   -0.5559 H         1 <0>         0.0557
     58 H24         3.9401   -1.8895   -0.0375 H         1 <0>         0.0999
@<TRIPOS>BOND
     1    1    2 1
     2    1   35 1
     3    1   36 1
     4    1   37 1
     5    2    7 ar
     6    2    3 ar
     7    3    4 ar
     8    3   38 1
     9    4    5 ar
    10    4   39 1
    11    5    6 ar
    12    5   33 1
    13    6    7 ar
    14    6    8 1
    15    7   40 1
    16    8    9 am
    17    8   41 1
    18    9   10 2
    19    9   11 1
    20   11   15 1
    21   11   12 2
    22   12   13 1
    23   12   22 1
    24   13   14 1
    25   14   20 2
    26   14   15 1
    27   15   16 am
    28   16   17 2
    29   16   18 1
    30   18   19 2
    31   18   42 1
    32   19   20 1
    33   19   21 1
    34   21   43 1
    35   21   44 1
    36   21   45 1
    37   22   23 2
    38   22   24 am
    39   24   25 1
    40   24   46 1
    41   25   30 ar
    42   25   26 ar
    43   26   27 ar
    44   26   47 1
    45   27   28 ar
    46   27   48 1
    47   28   29 ar
    48   28   49 1
    49   29   30 ar
    50   29   32 1
    51   30   31 1
    52   31   50 1
    53   31   51 1
    54   31   52 1
    55   32   53 1
    56   32   54 1
    57   32   55 1
    58   33   34 1
    59   34   56 1
    60   34   57 1
    61   34   58 1
@<TRIPOS>MOLECULE
ZINC12847038
   55    59     0     0     0
SMALL
USER_CHARGES

@<TRIPOS>ATOM
      1 C1          0.1397    1.3790   -0.6160 C.ar      1 <0>        -0.0983
      2 C2          1.1691    2.0860   -0.0214 C.ar      1 <0>        -0.1248
      3 C3          2.2209    1.4133    0.5726 C.ar      1 <0>        -0.0692
      4 C4          2.2467    0.0322    0.5740 C.ar      1 <0>        -0.1350
      5 C5          1.2144   -0.6806   -0.0217 C.ar      1 <0>         0.1456
      6 C6          0.1592   -0.0017   -0.6176 C.ar      1 <0>        -0.1189
      7 N1          1.2377   -2.0789   -0.0224 N.am      1 <0>        -0.6602
      8 C7          0.0870   -2.7721    0.0871 C.2       1 <0>         0.6055
      9 O1         -0.9774   -2.1848    0.1018 O.2       1 <0>        -0.5004
     10 C8          0.1192   -4.2452    0.1891 C.2       1 <0>         0.0651
     11 C9         -1.0057   -5.0934    0.3024 C.2       1 <0>        -0.2611
     12 C10        -0.5544   -6.3614    0.3684 C.2       1 <0>         0.3680
     13 N2          0.8099   -6.3314    0.3026 N.pl3     1 <0>        -0.3937
     14 N3          1.2044   -4.9994    0.1846 N.2       1 <0>        -0.2507
     15 C11         1.6527   -7.5296    0.3503 C.3       1 <0>         0.1290
     16 H1          1.9688   -7.7940   -0.6589 H         1 <0>         0.1365
     17 C12         0.8422   -8.6826    0.9531 C.3       1 <0>        -0.1524
     18 C13        -0.5114   -8.7962    0.2432 C.3       1 <0>         0.2079
     19 H2         -0.3534   -8.9276   -0.8273 H         1 <0>         0.0931
     20 N4         -1.2731   -7.5547    0.4834 N.pl3     1 <0>        -0.7245
     21 C14        -1.2727   -9.9757    0.7910 C.ar      1 <0>        -0.0960
     22 C15        -1.9563   -9.8602    1.9871 C.ar      1 <0>        -0.0913
     23 C16        -2.6565  -10.9392    2.4935 C.ar      1 <0>        -0.0969
     24 C17        -2.6744  -12.1401    1.8027 C.ar      1 <0>         0.0445
     25 C18        -1.9859  -12.2564    0.5978 C.ar      1 <0>         0.0364
     26 C19        -1.2909  -11.1691    0.0935 C.ar      1 <0>        -0.0823
     27 O2         -2.1560  -13.5232    0.1187 O.3       1 <0>        -0.3057
     28 C20        -2.6146  -14.3003    1.2408 C.3       1 <0>         0.2126
     29 O3         -3.2761  -13.3339    2.0785 O.3       1 <0>        -0.3059
     30 C21         2.8832   -7.2565    1.2176 C.3       1 <0>         0.4559
     31 F1          2.4754   -6.9227    2.5136 F         1 <0>        -0.1720
     32 F2          3.6861   -8.4013    1.2617 F         1 <0>        -0.1715
     33 F3          3.6131   -6.1957    0.6706 F         1 <0>        -0.1602
     34 C22         3.3406    2.1876    1.2188 C.3       1 <0>        -0.0746
     35 C23         3.0046    2.4381    2.6902 C.3       1 <0>        -0.0219
     36 C24         4.0984    3.1945    3.3214 C.1       1 <0>         0.2030
     37 N5          4.9425    3.7783    3.8085 N.1       1 <0>        -0.4344
     38 H3         -0.6825    1.9074   -1.0755 H         1 <0>         0.1280
     39 H4          1.1515    3.1658   -0.0215 H         1 <0>         0.1259
     40 H5          3.0689   -0.4927    1.0376 H         1 <0>         0.1284
     41 H6         -0.6452   -0.5531   -1.0817 H         1 <0>         0.1400
     42 H7          2.0819   -2.5499   -0.1016 H         1 <0>         0.4189
     43 H8         -2.0394   -4.7819    0.3312 H         1 <0>         0.1648
     44 H9          1.3938   -9.6149    0.8321 H         1 <0>         0.1233
     45 H10         0.6797   -8.4948    2.0144 H         1 <0>         0.1027
     46 H11        -2.2167   -7.5664    0.7079 H         1 <0>         0.4277
     47 H12        -1.9428   -8.9251    2.5273 H         1 <0>         0.1418
     48 H13        -3.1896  -10.8462    3.4281 H         1 <0>         0.1413
     49 H14        -0.7597  -11.2551   -0.8429 H         1 <0>         0.1411
     50 H15        -3.3161  -15.0679    0.9140 H         1 <0>         0.1360
     51 H16        -1.7715  -14.7491    1.7660 H         1 <0>         0.0888
     52 H17         4.2655    1.6150    1.1496 H         1 <0>         0.0829
     53 H18         3.4650    3.1419    0.7069 H         1 <0>         0.0847
     54 H19         2.0798    3.0108    2.7594 H         1 <0>         0.1121
     55 H20         2.8802    1.4838    3.2021 H         1 <0>         0.1108
@<TRIPOS>BOND
     1    1    6 ar
     2    1    2 ar
     3    1   38 1
     4    2    3 ar
     5    2   39 1
     6    3    4 ar
     7    3   34 1
     8    4    5 ar
     9    4   40 1
    10    5    6 ar
    11    5    7 1
    12    6   41 1
    13    7    8 am
    14    7   42 1
    15    8    9 2
    16    8   10 1
    17   10   14 2
    18   10   11 1
    19   11   12 2
    20   11   43 1
    21   12   20 1
    22   12   13 1
    23   13   14 1
    24   13   15 1
    25   15   16 1
    26   15   17 1
    27   15   30 1
    28   17   18 1
    29   17   44 1
    30   17   45 1
    31   18   19 1
    32   18   20 1
    33   18   21 1
    34   20   46 1
    35   21   26 ar
    36   21   22 ar
    37   22   23 ar
    38   22   47 1
    39   23   24 ar
    40   23   48 1
    41   24   29 1
    42   24   25 ar
    43   25   26 ar
    44   25   27 1
    45   26   49 1
    46   27   28 1
    47   28   29 1
    48   28   50 1
    49   28   51 1
    50   30   31 1
    51   30   32 1
    52   30   33 1
    53   34   35 1
    54   34   52 1
    55   34   53 1
    56   35   36 1
    57   35   54 1
    58   35   55 1
    59   36   37 3
@<TRIPOS>MOLECULE
ZINC10556879
   52    56     0     0     0
SMALL
USER_CHARGES
3-(2,5-dioxabicyclo[4.4.0]deca-7,9,11-trien-8-ylsulfonylamino)-N-(2-methylbenzothiazol-6-yl)-benzamide
@<TRIPOS>ATOM
      1 C1          1.6048    0.8776  -13.8871 C.3       1 <0>        -0.0699
      2 C2          2.0856    1.1782  -12.4908 C.2       1 <0>         0.1360
      3 N1          2.2976    2.3407  -11.9419 N.2       1 <0>        -0.5071
      4 C3          2.7322    2.4742  -10.6707 C.ar      1 <0>         0.0645
      5 C4          3.0051    3.6546   -9.9437 C.ar      1 <0>        -0.0383
      6 C5          3.4410    3.5949   -8.6575 C.ar      1 <0>        -0.1299
      7 C6          3.6347    2.3764   -8.0084 C.ar      1 <0>         0.1671
      8 C7          3.3815    1.1951   -8.6926 C.ar      1 <0>        -0.0674
      9 C8          2.9364    1.2518   -9.9904 C.ar      1 <0>        -0.1324
     10 S1          2.4902    0.0588  -11.2268 S.3       1 <0>         0.0308
     11 N2          4.0849    2.3441   -6.6837 N.am      1 <0>        -0.6644
     12 C9          3.6754    1.3620   -5.8566 C.2       1 <0>         0.5616
     13 O1          2.8419    0.5601   -6.2309 O.2       1 <0>        -0.5082
     14 C10         4.2399    1.2598   -4.4941 C.ar      1 <0>        -0.1215
     15 C11         5.1973    2.1796   -4.0617 C.ar      1 <0>        -0.0920
     16 C12         5.7227    2.0822   -2.7896 C.ar      1 <0>        -0.0985
     17 C13         5.3048    1.0755   -1.9392 C.ar      1 <0>        -0.1225
     18 C14         4.3523    0.1548   -2.3598 C.ar      1 <0>         0.1380
     19 C15         3.8217    0.2412   -3.6381 C.ar      1 <0>        -0.0656
     20 N3          3.9337   -0.8610   -1.4968 N.pl3     1 <0>        -1.0546
     21 S2          3.5760   -0.5112    0.0818 S.o2      1 <0>         2.6962
     22 O2          4.6617    0.2557    0.5840 O.2       1 <0>        -0.9434
     23 O3          3.1613   -1.7298    0.6838 O.2       1 <0>        -0.9422
     24 C16         2.1700    0.5508    0.0744 C.ar      1 <0>        -0.6790
     25 C17         0.8977    0.0118    0.1195 C.ar      1 <0>        -0.0114
     26 C18        -0.2074    0.8415    0.1134 C.ar      1 <0>        -0.1336
     27 C19        -0.0429    2.2177    0.0612 C.ar      1 <0>         0.1119
     28 C20         1.2361    2.7597    0.0183 C.ar      1 <0>         0.0312
     29 C21         2.3410    1.9212    0.0239 C.ar      1 <0>        -0.0084
     30 O4          1.4203    4.1075   -0.0248 O.3       1 <0>        -0.3015
     31 C22         0.2902    4.8997   -0.4057 C.3       1 <0>         0.0187
     32 C23        -0.9324    4.4002    0.3759 C.3       1 <0>         0.0166
     33 O5         -1.1409    3.0218    0.0471 O.3       1 <0>        -0.3001
     34 H1          2.4618    0.7842  -14.5542 H         1 <0>         0.0961
     35 H2          1.0428   -0.0563  -13.8846 H         1 <0>         0.0915
     36 H3          0.9622    1.6876  -14.2323 H         1 <0>         0.0973
     37 H4          2.8659    4.6160  -10.4157 H         1 <0>         0.1397
     38 H5          3.6418    4.5133   -8.1257 H         1 <0>         0.1394
     39 H6          3.5296    0.2414   -8.2078 H         1 <0>         0.1462
     40 H7          4.6916    3.0287   -6.3609 H         1 <0>         0.4153
     41 H8          5.5269    2.9672   -4.7232 H         1 <0>         0.1309
     42 H9          6.4631    2.7947   -2.4572 H         1 <0>         0.1422
     43 H10         5.7202    1.0039   -0.9449 H         1 <0>         0.1665
     44 H11         3.0844   -0.4755   -3.9683 H         1 <0>         0.1453
     45 H12         3.8527   -1.7711   -1.8223 H         1 <0>         0.4312
     46 H13         0.7673   -1.0596    0.1600 H         1 <0>         0.1524
     47 H14        -1.2002    0.4178    0.1489 H         1 <0>         0.1484
     48 H15         3.3360    2.3398   -0.0118 H         1 <0>         0.1525
     49 H16         0.4774    5.9463   -0.1657 H         1 <0>         0.1290
     50 H17         0.1113    4.7943   -1.4757 H         1 <0>         0.0812
     51 H18        -0.7509    4.5009    1.4459 H         1 <0>         0.0849
     52 H19        -1.8108    4.9814    0.0952 H         1 <0>         0.1294
@<TRIPOS>BOND
     1    1    2 1
     2    1   34 1
     3    1   35 1
     4    1   36 1
     5    2   10 1
     6    2    3 2
     7    3    4 1
     8    4    9 ar
     9    4    5 ar
    10    5    6 ar
    11    5   37 1
    12    6    7 ar
    13    6   38 1
    14    7    8 ar
    15    7   11 1
    16    8    9 ar
    17    8   39 1
    18    9   10 1
    19   11   12 am
    20   11   40 1
    21   12   13 2
    22   12   14 1
    23   14   19 ar
    24   14   15 ar
    25   15   16 ar
    26   15   41 1
    27   16   17 ar
    28   16   42 1
    29   17   18 ar
    30   17   43 1
    31   18   19 ar
    32   18   20 1
    33   19   44 1
    34   20   21 1
    35   20   45 1
    36   21   22 2
    37   21   23 2
    38   21   24 1
    39   24   29 ar
    40   24   25 ar
    41   25   26 ar
    42   25   46 1
    43   26   27 ar
    44   26   47 1
    45   27   33 1
    46   27   28 ar
    47   28   29 ar
    48   28   30 1
    49   29   48 1
    50   30   31 1
    51   31   32 1
    52   31   49 1
    53   31   50 1
    54   32   33 1
    55   32   51 1
    56   32   52 1
@<TRIPOS>MOLECULE
ZINC20762449
   59    62     0     0     0
SMALL
USER_CHARGES
(3R)-1-[[5-(6-oxo-1H-pyridazin-3-yl)-2-thienyl]sulfonyl]-N-(2,4,6-trimethylphenyl)piperidine-3-carboxamide
@<TRIPOS>ATOM
      1 C1         -0.0104   -9.2343   -7.8344 C.3       1 <0>        -0.1172
      2 C2         -0.6459   -8.1942   -6.9482 C.ar      1 <0>        -0.0831
      3 C3          0.1090   -7.1366   -6.4750 C.ar      1 <0>        -0.1154
      4 C4         -0.4704   -6.1817   -5.6626 C.ar      1 <0>        -0.0677
      5 C5         -1.8125   -6.2845   -5.3210 C.ar      1 <0>         0.1353
      6 C6         -2.5664   -7.3509   -5.7932 C.ar      1 <0>        -0.0899
      7 C7         -1.9824   -8.2997   -6.6095 C.ar      1 <0>        -0.1158
      8 C8         -4.0216   -7.4697   -5.4199 C.3       1 <0>        -0.1127
      9 N1         -2.4025   -5.3187   -4.4982 N.am      1 <0>        -0.6854
     10 C9         -1.8309   -4.9960   -3.3211 C.2       1 <0>         0.5234
     11 O1         -0.8552   -5.6036   -2.9340 O.2       1 <0>        -0.5179
     12 C10        -2.4040   -3.8801   -2.4859 C.3       1 <0>        -0.1187
     13 H1         -3.4436   -4.1330   -2.2306 H         1 <0>         0.1085
     14 C11        -2.3647   -2.5739   -3.2825 C.3       1 <0>        -0.1110
     15 C12        -2.9766   -1.4467   -2.4475 C.3       1 <0>        -0.1312
     16 C13        -2.1585   -1.2599   -1.1710 C.3       1 <0>         0.1099
     17 N2         -2.0644   -2.5477   -0.4701 N.pl3     1 <0>        -0.9928
     18 C14        -1.5741   -3.7196   -1.2083 C.3       1 <0>         0.1332
     19 S1         -2.5090   -2.6775    1.1198 S.o2      1 <0>         2.7234
     20 O2         -2.8485   -4.0402    1.3367 O.2       1 <0>        -0.9422
     21 O3         -3.4184   -1.6158    1.3752 O.2       1 <0>        -0.9410
     22 C15        -1.0739   -2.3555    2.0900 C.2       1 <0>        -0.7646
     23 C16        -0.6202   -1.1715    2.5764 C.2       1 <0>        -0.0036
     24 C17         0.5387   -1.1515    3.3205 C.2       1 <0>        -0.1563
     25 C18         1.1970   -2.3312    3.5457 C.2       1 <0>        -0.0648
     26 S2          0.1576   -3.5018    2.6871 S.3       1 <0>         0.2186
     27 C19         2.4434   -2.5724    4.3016 C.2       1 <0>         0.1217
     28 C20         2.9556   -3.8880    4.4175 C.2       1 <0>        -0.0620
     29 C21         4.1100   -4.0710    5.1184 C.2       1 <0>        -0.1722
     30 C22         4.7205   -2.9354    5.6965 C.2       1 <0>         0.4808
     31 O4          5.7532   -3.0520    6.3366 O.2       1 <0>        -0.5213
     32 N3          4.1559   -1.7240    5.5363 N.am      1 <0>        -0.4475
     33 H2          4.6251   -0.8351    5.9832 H         1 <0>         0.4775
     34 N4          3.0705   -1.5664    4.8689 N.2       1 <0>        -0.1854
     35 C23         0.3531   -5.0297   -5.1471 C.3       1 <0>        -0.1100
     36 H3          1.0491   -8.9839   -7.9920 H         1 <0>         0.0655
     37 H4         -0.5299   -9.2571   -8.8037 H         1 <0>         0.0701
     38 H5         -0.0865  -10.2211   -7.3543 H         1 <0>         0.0703
     39 H6          1.1526   -7.0570   -6.7413 H         1 <0>         0.1235
     40 H7         -2.5692   -9.1271   -6.9803 H         1 <0>         0.1244
     41 H8         -4.4470   -8.3712   -5.8849 H         1 <0>         0.0685
     42 H9         -4.5651   -6.5821   -5.7760 H         1 <0>         0.0673
     43 H10        -4.1148   -7.5424   -4.3263 H         1 <0>         0.0694
     44 H11        -3.3329   -4.8228   -4.8121 H         1 <0>         0.4295
     45 H12        -1.3215   -2.3242   -3.5261 H         1 <0>         0.0747
     46 H13        -2.9397   -2.6942   -4.2125 H         1 <0>         0.0748
     47 H14        -2.9681   -0.5132   -3.0294 H         1 <0>         0.0863
     48 H15        -4.0130   -1.7058   -2.1852 H         1 <0>         0.0751
     49 H16        -1.1504   -0.9043   -1.4304 H         1 <0>         0.0752
     50 H17        -2.6528   -0.5206   -0.5236 H         1 <0>         0.0998
     51 H18        -1.6783   -4.6218   -0.5876 H         1 <0>         0.1044
     52 H19        -0.5161   -3.5774   -1.4737 H         1 <0>         0.0855
     53 H20        -1.1588   -0.2566    2.3785 H         1 <0>         0.1533
     54 H21         0.9211   -0.2232    3.7186 H         1 <0>         0.1538
     55 H22         2.4467   -4.7233    3.9595 H         1 <0>         0.1548
     56 H23         4.5425   -5.0541    5.2319 H         1 <0>         0.1722
     57 H24        -0.2767   -4.3795   -4.5221 H         1 <0>         0.0644
     58 H25         0.7474   -4.4520   -5.9961 H         1 <0>         0.0613
     59 H26         1.1897   -5.4167   -4.5468 H         1 <0>         0.0734
@<TRIPOS>BOND
     1    1    2 1
     2    1   36 1
     3    1   37 1
     4    1   38 1
     5    2    7 ar
     6    2    3 ar
     7    3    4 ar
     8    3   39 1
     9    4    5 ar
    10    4   35 1
    11    5    6 ar
    12    5    9 1
    13    6    7 ar
    14    6    8 1
    15    7   40 1
    16    8   41 1
    17    8   42 1
    18    8   43 1
    19    9   10 am
    20    9   44 1
    21   10   11 2
    22   10   12 1
    23   12   13 1
    24   12   18 1
    25   12   14 1
    26   14   15 1
    27   14   45 1
    28   14   46 1
    29   15   16 1
    30   15   47 1
    31   15   48 1
    32   16   17 1
    33   16   49 1
    34   16   50 1
    35   17   18 1
    36   17   19 1
    37   18   51 1
    38   18   52 1
    39   19   20 2
    40   19   21 2
    41   19   22 1
    42   22   26 1
    43   22   23 2
    44   23   24 1
    45   23   53 1
    46   24   25 2
    47   24   54 1
    48   25   26 1
    49   25   27 1
    50   27   34 2
    51   27   28 1
    52   28   29 2
    53   28   55 1
    54   29   30 1
    55   29   56 1
    56   30   31 2
    57   30   32 am
    58   32   33 1
    59   32   34 1
    60   35   57 1
    61   35   58 1
    62   35   59 1
@<TRIPOS>MOLECULE
ZINC32986196
   57    61     0     0     0
SMALL
USER_CHARGES
(2R)-4-[4-(3,4-dihydro-2H-quinolin-1-ylsulfonyl)benzoyl]-2,3-dihydro-1,4-benzoxazine-2-carboxamide
@<TRIPOS>ATOM
      1 C1         -5.1742   -2.5675   -2.3904 C.ar      1 <0>        -0.1398
      2 C2         -4.4024   -2.2511   -1.2872 C.ar      1 <0>        -0.0842
      3 C3         -4.6183   -1.0662   -0.6131 C.ar      1 <0>        -0.1793
      4 C4         -5.6058   -0.1894   -1.0454 C.ar      1 <0>         0.1759
      5 C5         -6.3823   -0.5085   -2.1498 C.ar      1 <0>        -0.1072
      6 C6         -6.1597   -1.7001   -2.8197 C.ar      1 <0>        -0.0888
      7 C7         -7.4627    0.4156   -2.6465 C.3       1 <0>        -0.0808
      8 C8         -7.8934    1.3785   -1.5402 C.3       1 <0>        -0.1344
      9 C9         -6.6446    2.0506   -0.9545 C.3       1 <0>         0.0986
     10 N1         -5.8157    1.0027   -0.3435 N.pl3     1 <0>        -0.9325
     11 S1         -5.1352    1.2314    1.1488 S.o2      1 <0>         2.6833
     12 O1         -5.0100   -0.0549    1.7396 O.2       1 <0>        -0.9334
     13 O2         -5.8582    2.2867    1.7675 O.2       1 <0>        -0.9365
     14 C10        -3.4976    1.8277    0.8888 C.ar      1 <0>        -0.6567
     15 C11        -3.2662    3.1889    0.8006 C.ar      1 <0>        -0.0165
     16 C12        -1.9865    3.6624    0.5976 C.ar      1 <0>        -0.0758
     17 C13        -0.9239    2.7648    0.4807 C.ar      1 <0>        -0.0730
     18 C14        -1.1652    1.3925    0.5644 C.ar      1 <0>        -0.1324
     19 C15        -2.4488    0.9325    0.7742 C.ar      1 <0>        -0.0235
     20 C16         0.4499    3.2650    0.2631 C.2       1 <0>         0.5603
     21 O3          0.7809    4.3463    0.7094 O.2       1 <0>        -0.4929
     22 N2          1.3356    2.5224   -0.4302 N.am      1 <0>        -0.5434
     23 C17         0.9820    1.1817   -0.9273 C.3       1 <0>         0.0490
     24 C18         1.5407    1.0528   -2.3516 C.3       1 <0>         0.0594
     25 H1          1.1297    1.8154   -3.0295 H         1 <0>         0.1071
     26 O4          2.9546    1.2598   -2.3127 O.3       1 <0>        -0.2857
     27 C19         3.4163    2.3548   -1.6534 C.ar      1 <0>         0.0980
     28 C20         2.6279    3.0000   -0.7037 C.ar      1 <0>         0.0688
     29 C21         3.1140    4.1113   -0.0341 C.ar      1 <0>        -0.1140
     30 C22         4.3842    4.5822   -0.3123 C.ar      1 <0>        -0.1273
     31 C23         5.1675    3.9452   -1.2566 C.ar      1 <0>        -0.0976
     32 C24         4.6882    2.8348   -1.9263 C.ar      1 <0>        -0.1229
     33 C25         1.2464   -0.3238   -2.8897 C.2       1 <0>         0.5300
     34 O5          2.1564   -1.0906   -3.1240 O.2       1 <0>        -0.5121
     35 N3         -0.0280   -0.7027   -3.1107 N.am      1 <0>        -0.8693
     36 H2         -5.0062   -3.4952   -2.9172 H         1 <0>         0.1259
     37 H3         -3.6316   -2.9302   -0.9538 H         1 <0>         0.1300
     38 H4         -4.0163   -0.8179    0.2485 H         1 <0>         0.1378
     39 H5         -6.7593   -1.9521   -3.6819 H         1 <0>         0.1273
     40 H6         -7.0837    0.9977   -3.4995 H         1 <0>         0.0806
     41 H7         -8.3338   -0.1761   -2.9645 H         1 <0>         0.0838
     42 H8         -8.5651    2.1420   -1.9596 H         1 <0>         0.0904
     43 H9         -8.4198    0.8199   -0.7523 H         1 <0>         0.0759
     44 H10        -6.0894    2.5564   -1.7582 H         1 <0>         0.0829
     45 H11        -6.9466    2.7887   -0.1968 H         1 <0>         0.1093
     46 H12        -4.0892    3.8824    0.8913 H         1 <0>         0.1532
     47 H13        -1.8071    4.7253    0.5297 H         1 <0>         0.1508
     48 H14        -0.3481    0.6926    0.4702 H         1 <0>         0.1550
     49 H15        -2.6362   -0.1288    0.8443 H         1 <0>         0.1527
     50 H16         1.4254    0.4185   -0.2708 H         1 <0>         0.1066
     51 H17        -0.1123    1.0695   -0.9329 H         1 <0>         0.1340
     52 H18         2.5038    4.6062    0.7070 H         1 <0>         0.1713
     53 H19         4.7647    5.4482    0.2089 H         1 <0>         0.1318
     54 H20         6.1586    4.3165   -1.4719 H         1 <0>         0.1340
     55 H21         5.3050    2.3406   -2.6623 H         1 <0>         0.1389
     56 H22        -0.2428   -1.7075   -3.5035 H         1 <0>         0.4370
     57 H23        -0.8533   -0.0072   -2.8983 H         1 <0>         0.4204
@<TRIPOS>BOND
     1    1    6 ar
     2    1    2 ar
     3    1   36 1
     4    2    3 ar
     5    2   37 1
     6    3    4 ar
     7    3   38 1
     8    4   10 1
     9    4    5 ar
    10    5    6 ar
    11    5    7 1
    12    6   39 1
    13    7    8 1
    14    7   40 1
    15    7   41 1
    16    8    9 1
    17    8   42 1
    18    8   43 1
    19    9   10 1
    20    9   44 1
    21    9   45 1
    22   10   11 1
    23   11   12 2
    24   11   13 2
    25   11   14 1
    26   14   19 ar
    27   14   15 ar
    28   15   16 ar
    29   15   46 1
    30   16   17 ar
    31   16   47 1
    32   17   18 ar
    33   17   20 1
    34   18   19 ar
    35   18   48 1
    36   19   49 1
    37   20   21 2
    38   20   22 am
    39   22   28 1
    40   22   23 1
    41   23   24 1
    42   23   50 1
    43   23   51 1
    44   24   25 1
    45   24   26 1
    46   24   33 1
    47   26   27 1
    48   27   32 ar
    49   27   28 ar
    50   28   29 ar
    51   29   30 ar
    52   29   52 1
    53   30   31 ar
    54   30   53 1
    55   31   32 ar
    56   31   54 1
    57   32   55 1
    58   33   34 2
    59   33   35 am
    60   35   56 1
    61   35   57 1
@<TRIPOS>MOLECULE
ZINC15719201
   61    65     0     0     0
SMALL
USER_CHARGES

@<TRIPOS>ATOM
      1 C1          7.2366   -2.7846    4.3927 C.ar      1 <0>        -0.1062
      2 C2          6.4390   -3.5920    3.6026 C.ar      1 <0>        -0.1085
      3 C3          5.7290   -3.0467    2.5509 C.ar      1 <0>        -0.0712
      4 C4          5.8163   -1.6859    2.2876 C.ar      1 <0>         0.1292
      5 C5          6.6179   -0.8777    3.0833 C.ar      1 <0>        -0.0983
      6 C6          7.3256   -1.4292    4.1332 C.ar      1 <0>        -0.1131
      7 N1          5.0982   -1.1300    1.2219 N.pl3     1 <0>        -0.2840
      8 C7          3.7832   -1.3678    0.9221 C.2       1 <0>         0.0300
      9 C8          3.4833   -0.6209   -0.2000 C.2       1 <0>        -0.2024
     10 C9          4.6353    0.0684   -0.5699 C.2       1 <0>         0.1049
     11 N2          5.5934   -0.2259    0.2739 N.2       1 <0>        -0.2471
     12 C10         4.7581    1.0044   -1.7446 C.3       1 <0>        -0.0869
     13 C11         3.4631    1.5225   -2.3734 C.3       1 <0>        -0.1631
     14 C12         4.3351    2.4598   -1.5355 C.3       1 <0>        -0.1614
     15 C13         2.8650   -2.2516    1.6555 C.2       1 <0>         0.5862
     16 O1          3.2506   -2.8413    2.6471 O.2       1 <0>        -0.5003
     17 N3          1.5961   -2.4084    1.2290 N.am      1 <0>        -0.6569
     18 C14         0.6934   -3.1645    1.9832 C.ar      1 <0>         0.1236
     19 C15         1.1204   -4.3185    2.6279 C.ar      1 <0>        -0.0587
     20 C16         0.2265   -5.0630    3.3718 C.ar      1 <0>        -0.1194
     21 C17        -1.0928   -4.6608    3.4755 C.ar      1 <0>        -0.0267
     22 C18        -1.5210   -3.5127    2.8350 C.ar      1 <0>        -0.6234
     23 C19        -0.6306   -2.7603    2.0940 C.ar      1 <0>        -0.0369
     24 S1         -3.2028   -3.0047    2.9703 S.o2      1 <0>         2.6306
     25 O2         -3.4758   -2.1972    1.8334 O.2       1 <0>        -0.9708
     26 O3         -3.9559   -4.1705    3.2753 O.2       1 <0>        -0.9836
     27 N4         -3.3099   -2.0128    4.2921 N.2       1 <0>        -0.9789
     28 C20        -4.4483   -1.4952    4.6215 C.2       1 <0>         0.5659
     29 C21        -4.5481   -0.5753    5.8361 C.3       1 <0>        -0.0860
     30 C22        -4.8157    0.8224    5.3205 C.3       1 <0>        -0.1233
     31 C23        -6.3033    1.1311    5.1413 C.3       1 <0>        -0.1214
     32 C24        -7.0817   -0.0196    4.5025 C.3       1 <0>        -0.1487
     33 C25        -6.3502   -0.6655    3.3459 C.3       1 <0>         0.1261
     34 N5         -5.5247   -1.7559    3.9063 N.pl3     1 <0>        -0.7982
     35 H1          7.7876   -3.2127    5.2170 H         1 <0>         0.1301
     36 H2          6.3715   -4.6501    3.8079 H         1 <0>         0.1322
     37 H3          5.1069   -3.6779    1.9337 H         1 <0>         0.1271
     38 H4          6.6881    0.1809    2.8809 H         1 <0>         0.1301
     39 H5          7.9494   -0.8013    4.7521 H         1 <0>         0.1329
     40 H6          2.5273   -0.5789   -0.7007 H         1 <0>         0.1617
     41 H7          5.6007    0.8158   -2.4099 H         1 <0>         0.1256
     42 H8          3.4534    1.6748   -3.4527 H         1 <0>         0.1057
     43 H9          2.5223    1.1864   -1.9374 H         1 <0>         0.0996
     44 H10         3.9679    2.7403   -0.5482 H         1 <0>         0.0968
     45 H11         4.8991    3.2287   -2.0634 H         1 <0>         0.1041
     46 H12         1.3091   -1.9967    0.3990 H         1 <0>         0.4174
     47 H13         2.1504   -4.6333    2.5471 H         1 <0>         0.1463
     48 H14         0.5577   -5.9605    3.8730 H         1 <0>         0.1412
     49 H15        -1.7900   -5.2450    4.0576 H         1 <0>         0.1433
     50 H16        -0.9646   -1.8610    1.5979 H         1 <0>         0.1442
     51 H17        -5.3677   -0.8970    6.4787 H         1 <0>         0.1032
     52 H18        -3.6108   -0.5924    6.3923 H         1 <0>         0.1082
     53 H19        -4.3921    1.5406    6.0226 H         1 <0>         0.0810
     54 H20        -4.3161    0.9416    4.3592 H         1 <0>         0.0660
     55 H21        -6.7365    1.3479    6.1178 H         1 <0>         0.0692
     56 H22        -6.4046    2.0150    4.5116 H         1 <0>         0.0684
     57 H23        -7.2731   -0.7772    5.2625 H         1 <0>         0.0739
     58 H24        -8.0376    0.3614    4.1431 H         1 <0>         0.0775
     59 H25        -7.0676   -1.0703    2.6321 H         1 <0>         0.0977
     60 H26        -5.7098    0.0676    2.8554 H         1 <0>         0.0827
     61 H27        -5.7813   -2.6774    3.7451 H         1 <0>         0.4128
@<TRIPOS>BOND
     1    1    6 ar
     2    1    2 ar
     3    1   35 1
     4    2    3 ar
     5    2   36 1
     6    3    4 ar
     7    3   37 1
     8    4    5 ar
     9    4    7 1
    10    5    6 ar
    11    5   38 1
    12    6   39 1
    13    7   11 1
    14    7    8 1
    15    8    9 2
    16    8   15 1
    17    9   10 1
    18    9   40 1
    19   10   11 2
    20   10   12 1
    21   12   14 1
    22   12   13 1
    23   12   41 1
    24   13   14 1
    25   13   42 1
    26   13   43 1
    27   14   44 1
    28   14   45 1
    29   15   16 2
    30   15   17 am
    31   17   18 1
    32   17   46 1
    33   18   23 ar
    34   18   19 ar
    35   19   20 ar
    36   19   47 1
    37   20   21 ar
    38   20   48 1
    39   21   22 ar
    40   21   49 1
    41   22   23 ar
    42   22   24 1
    43   23   50 1
    44   24   25 2
    45   24   26 2
    46   24   27 1
    47   27   28 2
    48   28   34 1
    49   28   29 1
    50   29   30 1
    51   29   51 1
    52   29   52 1
    53   30   31 1
    54   30   53 1
    55   30   54 1
    56   31   32 1
    57   31   55 1
    58   31   56 1
    59   32   33 1
    60   32   57 1
    61   32   58 1
    62   33   34 1
    63   33   59 1
    64   33   60 1
    65   34   61 1
@<TRIPOS>MOLECULE
ZINC12309225
   52    54     0     0     0
SMALL
USER_CHARGES

@<TRIPOS>ATOM
      1 C1          0.6738    1.6947    3.5696 C.3       1 <0>        -0.1469
      2 C2          0.8251    0.1726    3.6028 C.3       1 <0>        -0.5666
      3 C3         -0.2086   -0.4219    4.5614 C.3       1 <0>        -0.1464
      4 S1          0.5616   -0.4977    1.9379 S.o2      1 <0>         2.4906
      5 O1         -0.7636   -0.2238    1.5041 O.2       1 <0>        -0.9253
      6 O2          1.6733   -0.1942    1.1065 O.2       1 <0>        -0.9309
      7 C4          0.6159   -2.2472    2.1403 C.ar      1 <0>        -0.6670
      8 C5          1.8214   -2.9177    2.0321 C.ar      1 <0>         0.0078
      9 C6          1.8721   -4.2911    2.1892 C.ar      1 <0>        -0.1418
     10 C7          0.7189   -5.0010    2.4551 C.ar      1 <0>        -0.0218
     11 C8         -0.4991   -4.3309    2.5658 C.ar      1 <0>        -0.1862
     12 C9         -0.5428   -2.9450    2.4119 C.ar      1 <0>         0.0340
     13 C10        -1.7405   -5.0869    2.8510 C.2       1 <0>         0.5490
     14 O3         -2.8037   -4.4988    2.9472 O.2       1 <0>        -0.4653
     15 N1         -1.6948   -6.4142    3.0029 N.2       1 <0>        -0.5642
     16 C11        -1.3163   -6.9373    4.1642 C.2       1 <0>         0.3722
     17 N2         -1.1492   -6.2979    5.3509 N.pl3     1 <0>        -0.5444
     18 C12        -0.7471   -7.0109    6.4646 C.ar      1 <0>         0.1989
     19 C13        -0.5162   -6.5568    7.7705 C.ar      1 <0>        -0.1411
     20 C14        -0.1146   -7.4297    8.7548 C.ar      1 <0>         0.0273
     21 C15         0.0722   -8.7756    8.4871 C.ar      1 <0>        -0.6899
     22 C16        -0.1496   -9.2494    7.2059 C.ar      1 <0>         0.0790
     23 C17        -0.5506   -8.3779    6.2212 C.ar      1 <0>        -0.2085
     24 S2         -0.9429   -8.5415    4.4992 S.3       1 <0>         0.2266
     25 S3          0.5876   -9.8738    9.7650 S.o2      1 <0>         2.7083
     26 O4          1.2145  -10.9765    9.1245 O.2       1 <0>        -0.9566
     27 O5          1.2517   -9.0803   10.7390 O.2       1 <0>        -0.9569
     28 N3         -0.7817  -10.4618   10.4871 N.pl3     1 <0>        -1.2490
     29 C18        -1.3939   -4.8569    5.4499 C.3       1 <0>         0.0957
     30 C19        -2.8674   -4.6100    5.6472 C.2       1 <0>        -0.1845
     31 C20        -3.2821   -3.9051    6.6705 C.2       1 <0>        -0.1532
     32 H1          0.8321    2.0975    4.5700 H         1 <0>         0.0879
     33 H2          1.4102    2.1182    2.8866 H         1 <0>         0.0747
     34 H3         -0.3288    1.9528    3.2285 H         1 <0>         0.0777
     35 H4          1.8277   -0.0855    3.9439 H         1 <0>         0.1411
     36 H5         -1.2112   -0.1638    4.2203 H         1 <0>         0.0800
     37 H6         -0.1008   -1.5063    4.5850 H         1 <0>         0.0647
     38 H7         -0.0503   -0.0191    5.5618 H         1 <0>         0.0843
     39 H8          2.7265   -2.3665    1.8237 H         1 <0>         0.1511
     40 H9          2.8160   -4.8089    2.1033 H         1 <0>         0.1455
     41 H10         0.7596   -6.0733    2.5769 H         1 <0>         0.1371
     42 H11        -1.4825   -2.4201    2.5004 H         1 <0>         0.1562
     43 H12        -0.6545   -5.5119    8.0059 H         1 <0>         0.1423
     44 H13         0.0586   -7.0587    9.7542 H         1 <0>         0.1583
     45 H14        -0.0080  -10.2962    6.9811 H         1 <0>         0.1632
     46 H15        -1.6550  -10.1783   10.1742 H         1 <0>         0.4178
     47 H16        -0.7105  -11.0898   11.2229 H         1 <0>         0.4236
     48 H17        -0.8409   -4.4519    6.2974 H         1 <0>         0.1062
     49 H18        -1.0632   -4.3684    4.5334 H         1 <0>         0.1071
     50 H19        -3.5814   -5.0142    4.9450 H         1 <0>         0.1279
     51 H20        -2.5681   -3.5009    7.3728 H         1 <0>         0.0999
     52 H21        -4.3381   -3.7281    6.8120 H         1 <0>         0.1106
@<TRIPOS>BOND
     1    1    2 1
     2    1   32 1
     3    1   33 1
     4    1   34 1
     5    2    3 1
     6    2    4 1
     7    2   35 1
     8    3   36 1
     9    3   37 1
    10    3   38 1
    11    4    5 2
    12    4    6 2
    13    4    7 1
    14    7   12 ar
    15    7    8 ar
    16    8    9 ar
    17    8   39 1
    18    9   10 ar
    19    9   40 1
    20   10   11 ar
    21   10   41 1
    22   11   12 ar
    23   11   13 1
    24   12   42 1
    25   13   14 2
    26   13   15 1
    27   15   16 2
    28   16   24 1
    29   16   17 1
    30   17   18 1
    31   17   29 1
    32   18   23 ar
    33   18   19 ar
    34   19   20 ar
    35   19   43 1
    36   20   21 ar
    37   20   44 1
    38   21   22 ar
    39   21   25 1
    40   22   23 ar
    41   22   45 1
    42   23   24 1
    43   25   26 2
    44   25   27 2
    45   25   28 1
    46   28   46 1
    47   28   47 1
    48   29   30 1
    49   29   48 1
    50   29   49 1
    51   30   31 2
    52   30   50 1
    53   31   51 1
    54   31   52 1
@<TRIPOS>MOLECULE
ZINC13211458
   55    58     0     0     0
SMALL
USER_CHARGES
1-[2-(2,3-dihydro-1,4-benzodioxin-6-ylmethylamino)-5-nitro-phenyl]sulfonylpiperidine-4-carboxylic acid
@<TRIPOS>ATOM
      1 C1          2.3898   -0.1836    0.6967 C.ar      1 <0>        -0.0911
      2 C2          1.2333    0.5337    0.9394 C.ar      1 <0>        -0.1153
      3 C3          1.1980    1.8982    0.6955 C.ar      1 <0>         0.0657
      4 C4          2.3294    2.5430    0.2091 C.ar      1 <0>         0.0562
      5 C5          3.4862    1.8176   -0.0324 C.ar      1 <0>        -0.0910
      6 C6          3.5140    0.4570    0.2110 C.ar      1 <0>        -0.1214
      7 C7          4.7725   -0.3288   -0.0532 C.3       1 <0>         0.1586
      8 N1          4.7586   -0.8239   -1.4320 N.pl3     1 <0>        -0.7195
      9 C8          5.8274   -1.5844   -1.9117 C.ar      1 <0>         0.3526
     10 C9          6.8512   -1.9656   -1.0534 C.ar      1 <0>        -0.2064
     11 C10         7.9064   -2.7174   -1.5309 C.ar      1 <0>         0.0349
     12 C11         7.9448   -3.0910   -2.8620 C.ar      1 <0>        -0.1248
     13 C12         6.9276   -2.7133   -3.7189 C.ar      1 <0>         0.0964
     14 C13         5.8663   -1.9661   -3.2465 C.ar      1 <0>        -0.7554
     15 S1          4.5668   -1.4915   -4.3378 S.o2      1 <0>         2.6872
     16 O1          4.8959   -2.0197   -5.6152 O.2       1 <0>        -0.9426
     17 O2          3.3477   -1.8011   -3.6765 O.2       1 <0>        -0.9537
     18 N2          4.6233    0.1575   -4.4785 N.pl3     1 <0>        -0.9910
     19 C14         3.7617    1.0097   -3.6478 C.3       1 <0>         0.1155
     20 C15         2.9746    1.9548   -4.5538 C.3       1 <0>        -0.1041
     21 C16         3.9464    2.7263   -5.4497 C.3       1 <0>        -0.1252
     22 C17         4.7207    1.7432   -6.3306 C.3       1 <0>        -0.1076
     23 C18         5.5317    0.7959   -5.4409 C.3       1 <0>         0.1183
     24 C19         3.1739    3.6816   -6.3225 C.2       1 <0>         0.4651
     25 O3          3.2363    3.5861   -7.5253 O.co2     1 <0>        -0.6371
     26 N3          9.0772   -3.8972   -3.3702 N.pl3     1 <0>         0.0411
     27 O4          9.9738   -4.2310   -2.6165 O.2       1 <0>        -0.1727
     28 O5          9.1124   -4.2270   -4.5422 O.3       1 <0>        -0.1673
     29 O6          2.3190    3.8829   -0.0294 O.3       1 <0>        -0.3009
     30 C20         1.0351    4.5087   -0.1299 C.3       1 <0>         0.0180
     31 C21         0.1664    4.0135    1.0343 C.3       1 <0>         0.0206
     32 O7          0.0497    2.5897    0.9313 O.3       1 <0>        -0.3054
     33 H1          2.4150   -1.2464    0.8872 H         1 <0>         0.1351
     34 H2          0.3562    0.0307    1.3192 H         1 <0>         0.1384
     35 H3          4.3661    2.3158   -0.4118 H         1 <0>         0.1395
     36 H4          5.6401    0.3146    0.0931 H         1 <0>         0.0875
     37 H5          4.8254   -1.1723    0.6352 H         1 <0>         0.0874
     38 H6          4.0072   -0.6235   -2.0117 H         1 <0>         0.4122
     39 H7          6.8217   -1.6745   -0.0137 H         1 <0>         0.1546
     40 H8          8.7025   -3.0144   -0.8641 H         1 <0>         0.1590
     41 H9          6.9605   -3.0070   -4.7577 H         1 <0>         0.1706
     42 H10         3.0690    0.3872   -3.0815 H         1 <0>         0.0815
     43 H11         4.3765    1.5928   -2.9621 H         1 <0>         0.0711
     44 H12         2.4069    2.6571   -3.9434 H         1 <0>         0.0833
     45 H13         2.2905    1.3751   -5.1735 H         1 <0>         0.0628
     46 H14         4.6458    3.2864   -4.8290 H         1 <0>         0.0699
     47 H15         5.3957    2.2949   -6.9849 H         1 <0>         0.0783
     48 H16         4.0202    1.1655   -6.9336 H         1 <0>         0.0698
     49 H17         6.2937    1.3613   -4.9044 H         1 <0>         0.0688
     50 H18         6.0063    0.0325   -6.0572 H         1 <0>         0.0888
     51 H19         1.1481    5.5911   -0.0697 H         1 <0>         0.1261
     52 H20         0.5685    4.2401   -1.0776 H         1 <0>         0.0867
     53 H21         0.6363    4.2776    1.9818 H         1 <0>         0.0778
     54 H22        -0.8224    4.4682    0.9745 H         1 <0>         0.1244
     55 O8          2.4166    4.6387   -5.7636 O.co2     1 <0>        -0.7712
@<TRIPOS>BOND
     1    1    6 ar
     2    1    2 ar
     3    1   33 1
     4    2    3 ar
     5    2   34 1
     6    3   32 1
     7    3    4 ar
     8    4    5 ar
     9    4   29 1
    10    5    6 ar
    11    5   35 1
    12    6    7 1
    13    7    8 1
    14    7   36 1
    15    7   37 1
    16    8    9 1
    17    8   38 1
    18    9   14 ar
    19    9   10 ar
    20   10   11 ar
    21   10   39 1
    22   11   12 ar
    23   11   40 1
    24   12   13 ar
    25   12   26 1
    26   13   14 ar
    27   13   41 1
    28   14   15 1
    29   15   16 2
    30   15   17 2
    31   15   18 1
    32   18   23 1
    33   18   19 1
    34   19   20 1
    35   19   42 1
    36   19   43 1
    37   20   21 1
    38   20   44 1
    39   20   45 1
    40   21   22 1
    41   21   24 1
    42   21   46 1
    43   22   23 1
    44   22   47 1
    45   22   48 1
    46   23   49 1
    47   23   50 1
    48   24   25 2
    49   24   55 1
    50   26   27 2
    51   26   28 1
    52   29   30 1
    53   30   31 1
    54   30   51 1
    55   30   52 1
    56   31   32 1
    57   31   53 1
    58   31   54 1
@<TRIPOS>MOLECULE
ZINC13445372
   63    66     0     0     0
SMALL
USER_CHARGES
3,4,5-trimethoxy-2-[[1-(naphthalene-1-carbonyl)piperidine-4-carbonyl]amino]benzoic acid
@<TRIPOS>ATOM
      1 C1        -10.9729   -3.4378    5.8080 C.3       1 <0>         0.0249
      2 O1        -10.9397   -2.0248    5.5967 O.3       1 <0>        -0.3107
      3 C2        -10.0274   -1.5551    4.7034 C.ar      1 <0>         0.0892
      4 C3         -9.1890   -2.4349    4.0497 C.ar      1 <0>        -0.1400
      5 C4         -8.2537   -1.9545    3.1259 C.ar      1 <0>        -0.0983
      6 C5         -8.1659   -0.5761    2.8759 C.ar      1 <0>         0.1422
      7 C6         -9.0150    0.3011    3.5398 C.ar      1 <0>         0.0903
      8 C7         -9.9431   -0.1864    4.4511 C.ar      1 <0>         0.0562
      9 O2        -10.7722    0.6738    5.0988 O.3       1 <0>        -0.3205
     10 C8        -10.2704    1.2868    6.2881 C.3       1 <0>         0.0397
     11 O3         -8.9370    1.6379    3.2973 O.3       1 <0>        -0.2895
     12 C9         -9.8326    2.1735    2.3211 C.3       1 <0>         0.0333
     13 N1         -7.2326   -0.0885    1.9592 N.am      1 <0>        -0.6433
     14 C10        -6.6190    1.0902    2.1844 C.2       1 <0>         0.5042
     15 O4         -6.8352    1.7001    3.2103 O.2       1 <0>        -0.4974
     16 C11        -5.6643    1.6502    1.1617 C.3       1 <0>        -0.0990
     17 C12        -5.1105    2.9872    1.6596 C.3       1 <0>        -0.1107
     18 C13        -4.1673    3.5701    0.6025 C.3       1 <0>         0.1122
     19 N2         -3.1377    2.5712    0.2850 N.am      1 <0>        -0.6031
     20 C14        -3.5617    1.2248   -0.1227 C.3       1 <0>         0.1038
     21 C15        -4.5115    0.6665    0.9478 C.3       1 <0>        -0.1300
     22 C16        -1.8294    2.8856    0.3608 C.2       1 <0>         0.5649
     23 O5         -1.4893    3.9760    0.7781 O.2       1 <0>        -0.5350
     24 C17        -0.8103    1.9074   -0.0622 C.ar      1 <0>        -0.1133
     25 C18        -0.8825    1.3165   -1.3152 C.ar      1 <0>        -0.0789
     26 C19         0.0715    0.3904   -1.7174 C.ar      1 <0>        -0.1227
     27 C20         1.1071    0.0447   -0.9017 C.ar      1 <0>        -0.0838
     28 C21         1.2234    0.6226    0.3743 C.ar      1 <0>        -0.0551
     29 C22         0.2577    1.5647    0.8045 C.ar      1 <0>        -0.0163
     30 C23         0.3756    2.1410    2.0764 C.ar      1 <0>        -0.1003
     31 C24         1.4151    1.7880    2.8835 C.ar      1 <0>        -0.1123
     32 C25         2.3660    0.8611    2.4625 C.ar      1 <0>        -0.1136
     33 C26         2.2830    0.2823    1.2331 C.ar      1 <0>        -0.1072
     34 C27        -7.3624   -2.8906    2.4228 C.2       1 <0>         0.4986
     35 O6         -6.4820   -2.4653    1.7008 O.co2     1 <0>        -0.6255
     36 H1        -11.1982   -3.9405    4.8674 H         1 <0>         0.0575
     37 H2        -10.0032   -3.7730    6.1759 H         1 <0>         0.0559
     38 H3        -11.7425   -3.6775    6.5416 H         1 <0>         0.0956
     39 H4         -9.2574   -3.4944    4.2478 H         1 <0>         0.1486
     40 H5        -11.0594    1.8784    6.7525 H         1 <0>         0.0857
     41 H6         -9.9384    0.5150    6.9824 H         1 <0>         0.0414
     42 H7         -9.4308    1.9347    6.0364 H         1 <0>         0.0497
     43 H8         -9.7155    1.6300    1.3836 H         1 <0>         0.0360
     44 H9        -10.8586    2.0715    2.6745 H         1 <0>         0.0452
     45 H10        -9.6068    3.2277    2.1605 H         1 <0>         0.0852
     46 H11        -7.0257   -0.5981    1.1601 H         1 <0>         0.4208
     47 H12        -6.1905    1.8033    0.2195 H         1 <0>         0.0957
     48 H13        -4.5630    2.8308    2.5890 H         1 <0>         0.0748
     49 H14        -5.9339    3.6798    1.8340 H         1 <0>         0.0847
     50 H15        -3.6941    4.4714    0.9921 H         1 <0>         0.0961
     51 H16        -4.7322    3.8115   -0.2979 H         1 <0>         0.0705
     52 H17        -4.0782    1.2788   -1.0811 H         1 <0>         0.0759
     53 H18        -2.6887    0.5781   -0.2118 H         1 <0>         0.0937
     54 H19        -3.9697    0.5320    1.8840 H         1 <0>         0.0742
     55 H20        -4.9087   -0.2927    0.6157 H         1 <0>         0.0979
     56 H21        -1.6907    1.5761   -1.9830 H         1 <0>         0.1305
     57 H22        -0.0065   -0.0605   -2.6957 H         1 <0>         0.1311
     58 H23         1.8401   -0.6743   -1.2366 H         1 <0>         0.1311
     59 H24        -0.3540    2.8615    2.4154 H         1 <0>         0.1334
     60 H25         1.5033    2.2334    3.8634 H         1 <0>         0.1246
     61 H26         3.1809    0.5982    3.1207 H         1 <0>         0.1242
     62 H27         3.0275   -0.4343    0.9192 H         1 <0>         0.1290
     63 O7         -7.5224   -4.2198    2.5794 O.co2     1 <0>        -0.7425
@<TRIPOS>BOND
     1    1    2 1
     2    1   36 1
     3    1   37 1
     4    1   38 1
     5    2    3 1
     6    3    8 ar
     7    3    4 ar
     8    4    5 ar
     9    4   39 1
    10    5    6 ar
    11    5   34 1
    12    6    7 ar
    13    6   13 1
    14    7    8 ar
    15    7   11 1
    16    8    9 1
    17    9   10 1
    18   10   40 1
    19   10   41 1
    20   10   42 1
    21   11   12 1
    22   12   43 1
    23   12   44 1
    24   12   45 1
    25   13   14 am
    26   13   46 1
    27   14   15 2
    28   14   16 1
    29   16   21 1
    30   16   17 1
    31   16   47 1
    32   17   18 1
    33   17   48 1
    34   17   49 1
    35   18   19 1
    36   18   50 1
    37   18   51 1
    38   19   20 1
    39   19   22 am
    40   20   21 1
    41   20   52 1
    42   20   53 1
    43   21   54 1
    44   21   55 1
    45   22   23 2
    46   22   24 1
    47   24   29 ar
    48   24   25 ar
    49   25   26 ar
    50   25   56 1
    51   26   27 ar
    52   26   57 1
    53   27   28 ar
    54   27   58 1
    55   28   33 ar
    56   28   29 ar
    57   29   30 ar
    58   30   31 ar
    59   30   59 1
    60   31   32 ar
    61   31   60 1
    62   32   33 ar
    63   32   61 1
    64   33   62 1
    65   34   35 2
    66   34   63 1
@<TRIPOS>MOLECULE
ZINC35058013
   53    56     0     0     0
SMALL
USER_CHARGES

@<TRIPOS>ATOM
      1 C1         -0.0184    1.5028    0.0103 C.3       1 <0>        -0.1729
      2 C2          0.0021   -0.0041    0.0020 C.2       1 <0>         0.5154
      3 O1          0.0203   -0.6160    1.0489 O.2       1 <0>        -0.5460
      4 N1          0.0001   -0.6716   -1.1688 N.am      1 <0>        -0.7151
      5 C3          0.0199   -2.1365   -1.1769 C.3       1 <0>         0.1183
      6 H1          0.6220   -2.4977   -0.3431 H         1 <0>         0.1345
      7 C4          0.6198   -2.6337   -2.4955 C.3       1 <0>         0.0848
      8 H2          0.0480   -2.2294   -3.3308 H         1 <0>         0.0843
      9 C5          0.5645   -4.1616   -2.5309 C.3       1 <0>         0.0680
     10 H3          0.9305   -4.5161   -3.4944 H         1 <0>         0.0879
     11 C6         -0.8808   -4.6290   -2.3302 C.3       1 <0>         0.0270
     12 H4         -1.4931   -4.3007   -3.1701 H         1 <0>         0.0917
     13 C7         -0.8922   -6.1609   -2.2493 C.3       1 <0>         0.0729
     14 O2          0.0116   -6.5748   -1.2200 O.3       1 <0>        -0.3744
     15 C8          1.3551   -6.1271   -1.4154 C.3       1 <0>         0.3294
     16 H5          1.7447   -6.5425   -2.3448 H         1 <0>         0.0875
     17 O3          1.3778   -4.6990   -1.4852 O.3       1 <0>        -0.3445
     18 C9          2.2101   -6.5867   -0.2627 C.2       1 <0>        -0.0016
     19 C10         2.4246   -7.8650    0.0969 C.2       1 <0>        -0.1806
     20 C11         3.2808   -7.8360    1.2216 C.2       1 <0>        -0.2238
     21 C12         3.5384   -6.5417    1.4819 C.2       1 <0>        -0.0242
     22 O4          2.8919   -5.7898    0.5762 O.3       1 <0>        -0.1457
     23 O5         -1.3956   -4.0801   -1.1152 O.3       1 <0>        -0.3535
     24 C13        -1.4097   -2.6691   -1.0452 C.3       1 <0>         0.2396
     25 H6         -1.8307   -2.3496   -0.0919 H         1 <0>         0.1244
     26 O6         -2.2088   -2.1600   -2.1149 O.3       1 <0>        -0.3137
     27 C14        -3.5505   -2.3641   -2.0343 C.ar      1 <0>         0.1499
     28 C15        -4.0866   -3.0353   -0.9454 C.ar      1 <0>        -0.1712
     29 C16        -5.4502   -3.2419   -0.8650 C.ar      1 <0>        -0.0649
     30 C17        -6.2817   -2.7798   -1.8700 C.ar      1 <0>        -0.0628
     31 C18        -5.7498   -2.1100   -2.9574 C.ar      1 <0>        -0.0681
     32 C19        -4.3863   -1.8962   -3.0389 C.ar      1 <0>        -0.0606
     33 Cl1        -3.7194   -1.0495   -4.3998 Cl        1 <0>        -0.0421
     34 Cl2        -7.9948   -3.0415   -1.7664 Cl        1 <0>        -0.0624
     35 O7          1.9785   -2.2022   -2.5942 O.3       1 <0>        -0.3233
     36 C20         2.1401   -0.9305   -3.2257 C.3       1 <0>        -0.0090
     37 C21         3.6042   -0.5769   -3.2756 C.2       1 <0>         0.4990
     38 O8          4.4325   -1.3429   -2.8133 O.co2     1 <0>        -0.6685
     39 O9          3.9604    0.4752   -3.7782 O.co2     1 <0>        -0.6956
     40 H7          1.0042    1.8801    0.0026 H         1 <0>         0.0995
     41 H8         -0.5455    1.8639   -0.8728 H         1 <0>         0.0801
     42 H9         -0.5286    1.8543    0.9071 H         1 <0>         0.0925
     43 H10        -0.0145   -0.1822   -2.0061 H         1 <0>         0.4057
     44 H11        -1.8984   -6.5067   -2.0128 H         1 <0>         0.1152
     45 H12        -0.5748   -6.5795   -3.2044 H         1 <0>         0.0790
     46 H13         2.0199   -8.7447   -0.3813 H         1 <0>         0.1502
     47 H14         3.6559   -8.6892    1.7672 H         1 <0>         0.1500
     48 H15         4.1625   -6.1703    2.2813 H         1 <0>         0.2046
     49 H16        -3.4383   -3.3965   -0.1607 H         1 <0>         0.1521
     50 H17        -5.8676   -3.7648   -0.0173 H         1 <0>         0.1423
     51 H18        -6.4003   -1.7505   -3.7409 H         1 <0>         0.1485
     52 H19         1.7424   -0.9751   -4.2395 H         1 <0>         0.0450
     53 H20         1.6023   -0.1717   -2.6573 H         1 <0>         0.0455
@<TRIPOS>BOND
     1    1    2 1
     2    1   40 1
     3    1   41 1
     4    1   42 1
     5    2    3 2
     6    2    4 am
     7    4    5 1
     8    4   43 1
     9    5    6 1
    10    5   24 1
    11    5    7 1
    12    7    8 1
    13    7    9 1
    14    7   35 1
    15    9   10 1
    16    9   17 1
    17    9   11 1
    18   11   12 1
    19   11   13 1
    20   11   23 1
    21   13   14 1
    22   13   44 1
    23   13   45 1
    24   14   15 1
    25   15   16 1
    26   15   17 1
    27   15   18 1
    28   18   22 1
    29   18   19 2
    30   19   20 1
    31   19   46 1
    32   20   21 2
    33   20   47 1
    34   21   22 1
    35   21   48 1
    36   23   24 1
    37   24   25 1
    38   24   26 1
    39   26   27 1
    40   27   32 ar
    41   27   28 ar
    42   28   29 ar
    43   28   49 1
    44   29   30 ar
    45   29   50 1
    46   30   31 ar
    47   30   34 1
    48   31   32 ar
    49   31   51 1
    50   32   33 1
    51   35   36 1
    52   36   37 1
    53   36   52 1
    54   36   53 1
    55   37   38 2
    56   37   39 1
@<TRIPOS>MOLECULE
ZINC39733506
   62    66     0     0     0
SMALL
USER_CHARGES

@<TRIPOS>ATOM
      1 C1          1.0109    1.2265    0.7347 C.3       1 <0>        -0.1529
      2 C2          0.4497   -0.1342    0.3170 C.3       1 <0>         0.0595
      3 O1          1.1494   -0.6040   -0.8371 O.3       1 <0>        -0.3472
      4 C3          0.7755   -1.7935   -1.3341 C.2       1 <0>         0.4780
      5 O2         -0.1163   -2.4152   -0.8068 O.2       1 <0>        -0.4883
      6 C4          1.4679   -2.3535   -2.5498 C.3       1 <0>        -0.0647
      7 H1          2.4653   -1.9197   -2.6222 H         1 <0>         0.1397
      8 C5          0.6585   -1.9727   -3.8127 C.3       1 <0>         0.2012
      9 H2          1.0691   -1.0880   -4.2994 H         1 <0>         0.1646
     10 S1          0.9602   -3.4932   -4.8075 S.3       1 <0>        -0.1716
     11 C6          1.3741   -4.5953   -3.4756 C.2       1 <0>        -0.0776
     12 C7          1.5910   -3.8490   -2.4012 C.2       1 <0>        -0.1395
     13 C8          1.9574   -4.4875   -1.0628 C.3       1 <0>        -0.0656
     14 C9          1.5729   -5.9661   -1.0905 C.3       1 <0>        -0.1193
     15 C10         2.1780   -6.6278   -2.3329 C.3       1 <0>        -0.1160
     16 C11         1.4542   -6.0936   -3.5681 C.3       1 <0>        -0.0511
     17 N1         -0.7642   -1.8013   -3.5082 N.am      1 <0>        -0.7090
     18 C12        -1.4363   -0.7426   -4.0021 C.2       1 <0>         0.5497
     19 O3         -0.8632    0.0682   -4.6987 O.2       1 <0>        -0.5098
     20 C13        -2.8998   -0.5663   -3.6889 C.3       1 <0>        -0.1112
     21 H3         -3.3802   -1.5432   -3.6356 H         1 <0>         0.1192
     22 C14        -3.0511    0.1504   -2.3456 C.3       1 <0>        -0.1406
     23 S2         -3.6825    0.4221   -4.9931 S.3       1 <0>         0.0505
     24 C15        -5.3921    0.4131   -4.5668 C.2       1 <0>         0.0652
     25 N2         -5.9334   -0.1804   -3.5289 N.2       1 <0>        -0.2468
     26 N3         -7.2050    0.0135   -3.5162 N.2       1 <0>        -0.3381
     27 C16        -7.5554    0.7493   -4.5544 C.2       1 <0>         0.4443
     28 N4         -6.4020    1.0276   -5.2512 N.pl3     1 <0>        -0.4394
     29 C17        -6.4400    1.7899   -6.3934 C.2       1 <0>         0.1249
     30 C18        -7.6255    2.2548   -6.8225 C.2       1 <0>        -0.1731
     31 C19        -8.7948    1.9568   -6.0777 C.2       1 <0>         0.4572
     32 O4         -9.9928    2.4286   -6.4977 O.3       1 <0>        -0.6685
     33 N5         -8.7325    1.2231   -4.9892 N.2       1 <0>        -0.5752
     34 C20        -7.7774    3.0784   -8.0731 C.3       1 <0>        -0.0486
     35 C21        -6.4335    3.6671   -8.4981 C.3       1 <0>        -0.1231
     36 C22        -5.4021    2.5327   -8.5366 C.3       1 <0>        -0.1104
     37 C23        -5.1434    2.0718   -7.1033 C.3       1 <0>        -0.0821
     38 H4          2.0708    1.1262    0.9683 H         1 <0>         0.0660
     39 H5          0.8844    1.9378   -0.0814 H         1 <0>         0.0690
     40 H6          0.4772    1.5848    1.6150 H         1 <0>         0.0814
     41 H7          0.5762   -0.8455    1.1331 H         1 <0>         0.0688
     42 H8         -0.6102   -0.0339    0.0834 H         1 <0>         0.0711
     43 H9          3.0304   -4.3933   -0.8959 H         1 <0>         0.0764
     44 H10         1.4175   -3.9857   -0.2599 H         1 <0>         0.0790
     45 H11         1.9538   -6.4574   -0.1951 H         1 <0>         0.0703
     46 H12         0.4873   -6.0586   -1.1218 H         1 <0>         0.0693
     47 H13         3.2385   -6.3842   -2.3979 H         1 <0>         0.0685
     48 H14         2.0504   -7.7085   -2.2712 H         1 <0>         0.0746
     49 H15         0.4483   -6.5116   -3.6072 H         1 <0>         0.0879
     50 H16         2.0043   -6.3752   -4.4660 H         1 <0>         0.0841
     51 H17        -1.2225   -2.4497   -2.9510 H         1 <0>         0.4152
     52 H18        -2.5706    1.1274   -2.3989 H         1 <0>         0.0691
     53 H19        -4.1096    0.2780   -2.1190 H         1 <0>         0.0936
     54 H20        -2.5807   -0.4435   -1.5619 H         1 <0>         0.0629
     55 H21        -8.1624    2.4474   -8.8741 H         1 <0>         0.0736
     56 H22        -8.4814    3.8892   -7.8857 H         1 <0>         0.0846
     57 H23        -6.5248    4.1145   -9.4878 H         1 <0>         0.0699
     58 H24        -6.1202    4.4243   -7.7794 H         1 <0>         0.0645
     59 H25        -5.7913    1.7019   -9.1252 H         1 <0>         0.0688
     60 H26        -4.4741    2.8946   -8.9794 H         1 <0>         0.0738
     61 H27        -4.6027    2.8518   -6.5673 H         1 <0>         0.0879
     62 H28        -4.5393    1.1647   -7.1214 H         1 <0>         0.0852
@<TRIPOS>BOND
     1    1    2 1
     2    1   38 1
     3    1   39 1
     4    1   40 1
     5    2    3 1
     6    2   41 1
     7    2   42 1
     8    3    4 1
     9    4    5 2
    10    4    6 1
    11    6    7 1
    12    6   12 1
    13    6    8 1
    14    8    9 1
    15    8   10 1
    16    8   17 1
    17   10   11 1
    18   11   16 1
    19   11   12 2
    20   12   13 1
    21   13   14 1
    22   13   43 1
    23   13   44 1
    24   14   15 1
    25   14   45 1
    26   14   46 1
    27   15   16 1
    28   15   47 1
    29   15   48 1
    30   16   49 1
    31   16   50 1
    32   17   18 am
    33   17   51 1
    34   18   19 2
    35   18   20 1
    36   20   21 1
    37   20   22 1
    38   20   23 1
    39   22   52 1
    40   22   53 1
    41   22   54 1
    42   23   24 1
    43   24   28 1
    44   24   25 2
    45   25   26 1
    46   26   27 2
    47   27   33 1
    48   27   28 1
    49   28   29 1
    50   29   37 1
    51   29   30 2
    52   30   31 1
    53   30   34 1
    54   31   32 1
    55   31   33 2
    56   34   35 1
    57   34   55 1
    58   34   56 1
    59   35   36 1
    60   35   57 1
    61   35   58 1
    62   36   37 1
    63   36   59 1
    64   36   60 1
    65   37   61 1
    66   37   62 1
@<TRIPOS>MOLECULE
ZINC59862277
   48    50     0     0     0
SMALL
USER_CHARGES

@<TRIPOS>ATOM
      1 C1         -0.7270    0.9145    0.8557 C.3       1 <0>        -0.1136
      2 C2         -0.2658   -0.4675    0.4704 C.ar      1 <0>        -0.0671
      3 C3         -0.3391   -0.8770   -0.8470 C.ar      1 <0>        -0.0935
      4 C4          0.0858   -2.1499   -1.2015 C.ar      1 <0>         0.1813
      5 C5          0.5838   -3.0087   -0.2294 C.ar      1 <0>        -0.0747
      6 C6          0.6545   -2.5930    1.0865 C.ar      1 <0>        -0.0843
      7 C7          0.2355   -1.3220    1.4349 C.ar      1 <0>        -0.0854
      8 C8          0.3196   -0.8694    2.8698 C.3       1 <0>        -0.1106
      9 Br1         1.1635   -4.7443   -0.7064 Br        1 <0>        -0.0446
     10 N1          0.0121   -2.5683   -2.5370 N.am      1 <0>        -0.5497
     11 C9         -1.1087   -3.1761   -2.9817 C.2       1 <0>         0.5681
     12 O1         -2.0562   -3.3668   -2.2423 O.2       1 <0>        -0.5133
     13 C10        -1.1463   -3.6010   -4.3950 C.2       1 <0>        -0.2321
     14 C11        -2.2575   -4.2312   -4.9327 C.2       1 <0>         0.0455
     15 C12        -2.1787   -4.8384   -6.2121 C.ar      1 <0>        -0.0086
     16 C13        -1.1111   -5.6966   -6.5199 C.ar      1 <0>        -0.1035
     17 C14        -1.0389   -6.2847   -7.7658 C.ar      1 <0>         0.1245
     18 C15        -2.0240   -6.0276   -8.7190 C.ar      1 <0>         0.0583
     19 C16        -3.0863   -5.1754   -8.4184 C.ar      1 <0>         0.1167
     20 C17        -3.1712   -4.5877   -7.1730 C.ar      1 <0>        -0.1973
     21 O2         -4.0435   -4.9283   -9.3523 O.3       1 <0>        -0.3086
     22 C18        -5.1032   -4.0459   -8.9774 C.3       1 <0>         0.0267
     23 O3         -1.9483   -6.6084   -9.9439 O.3       1 <0>        -0.4732
     24 O4         -0.0053   -7.1162   -8.0652 O.3       1 <0>        -0.3073
     25 C19         0.9685   -7.3350   -7.0424 C.3       1 <0>         0.0252
     26 C20         0.0492   -3.3249   -5.2070 C.2       1 <0>         0.4889
     27 O5          0.0972   -3.6802   -6.5081 O.3       1 <0>        -0.6123
     28 N2          1.0750   -2.7202   -4.6328 N.2       1 <0>        -0.6549
     29 C21         1.0538   -2.3534   -3.3537 C.2       1 <0>         0.6709
     30 O6          2.0367   -1.7960   -2.8985 O.2       1 <0>        -0.5579
     31 H1          0.1080    1.6108    0.7785 H         1 <0>         0.0741
     32 H2         -1.5267    1.2305    0.1858 H         1 <0>         0.0679
     33 H3         -1.0959    0.9016    1.8813 H         1 <0>         0.0709
     34 H4         -0.7270   -0.2074   -1.6004 H         1 <0>         0.1297
     35 H5          1.0415   -3.2598    1.8429 H         1 <0>         0.1346
     36 H6         -0.6063   -1.1235    3.3858 H         1 <0>         0.0713
     37 H7          1.1567   -1.3672    3.3593 H         1 <0>         0.0673
     38 H8          0.4693    0.2098    2.9023 H         1 <0>         0.0706
     39 H9         -3.1835   -4.2598   -4.3775 H         1 <0>         0.1415
     40 H10        -0.3474   -5.8958   -5.7827 H         1 <0>         0.1305
     41 H11        -3.9968   -3.9317   -6.9396 H         1 <0>         0.1320
     42 H12        -5.7961   -3.9353   -9.8115 H         1 <0>         0.0972
     43 H13        -5.6320   -4.4578   -8.1179 H         1 <0>         0.0538
     44 H14        -4.6897   -3.0716   -8.7169 H         1 <0>         0.0556
     45 H15        -2.3938   -7.4648  -10.0014 H         1 <0>         0.3752
     46 H16         0.4854   -7.7712   -6.1681 H         1 <0>         0.0498
     47 H17         1.7359   -8.0156   -7.4110 H         1 <0>         0.0969
     48 H18         1.4269   -6.3849   -6.7680 H         1 <0>         0.0678
@<TRIPOS>BOND
     1    1    2 1
     2    1   31 1
     3    1   32 1
     4    1   33 1
     5    2    7 ar
     6    2    3 ar
     7    3    4 ar
     8    3   34 1
     9    4    5 ar
    10    4   10 1
    11    5    6 ar
    12    5    9 1
    13    6    7 ar
    14    6   35 1
    15    7    8 1
    16    8   36 1
    17    8   37 1
    18    8   38 1
    19   10   29 am
    20   10   11 am
    21   11   12 2
    22   11   13 1
    23   13   14 2
    24   13   26 1
    25   14   15 1
    26   14   39 1
    27   15   20 ar
    28   15   16 ar
    29   16   17 ar
    30   16   40 1
    31   17   18 ar
    32   17   24 1
    33   18   19 ar
    34   18   23 1
    35   19   20 ar
    36   19   21 1
    37   20   41 1
    38   21   22 1
    39   22   42 1
    40   22   43 1
    41   22   44 1
    42   23   45 1
    43   24   25 1
    44   25   46 1
    45   25   47 1
    46   25   48 1
    47   26   27 1
    48   26   28 2
    49   28   29 1
    50   29   30 2
@<TRIPOS>MOLECULE
ZINC39884128
   48    52     0     0     0
SMALL
USER_CHARGES

@<TRIPOS>ATOM
      1 C1         -0.0313    1.3769   -0.0002 C.ar      1 <0>        -0.0757
      2 C2          1.1556    2.0836   -0.0164 C.ar      1 <0>        -0.1411
      3 C3          2.3653    1.4049   -0.0404 C.ar      1 <0>         0.1006
      4 C4          2.3798    0.0177   -0.0481 C.ar      1 <0>        -0.1439
      5 C5          1.1901   -0.6844   -0.0318 C.ar      1 <0>        -0.0830
      6 C6         -0.0142   -0.0057   -0.0079 C.ar      1 <0>        -0.0745
      7 C7         -1.3105   -0.7741    0.0103 C.3       1 <0>         0.0519
      8 H1         -2.1271   -0.0523    0.0282 H         1 <0>         0.0986
      9 C8         -1.3621   -1.5545    1.2645 C.2       1 <0>        -0.1811
     10 C9         -1.8008   -2.8094    1.4769 C.2       1 <0>         0.0964
     11 N1         -1.7627   -3.2348    2.7824 N.am      1 <0>        -0.5096
     12 C10        -1.2692   -2.4241    3.7369 C.2       1 <0>         0.4767
     13 O1         -1.1536   -2.6438    4.9298 O.2       1 <0>        -0.4735
     14 S1         -0.8504   -1.0355    2.8866 S.3       1 <0>         0.0669
     15 C11        -2.2584   -4.5674    3.1352 C.3       1 <0>         0.0735
     16 C12        -1.1313   -5.5634    3.0427 C.2       1 <0>         0.5036
     17 O2         -0.0229   -5.1962    2.7144 O.2       1 <0>        -0.4945
     18 N2         -1.3548   -6.8622    3.3248 N.am      1 <0>        -0.6705
     19 C13        -0.3336   -7.8034    3.1459 C.ar      1 <0>         0.1385
     20 C14        -0.6389   -9.0866    2.7122 C.ar      1 <0>        -0.1139
     21 C15         0.3698  -10.0135    2.5364 C.ar      1 <0>        -0.1347
     22 C16         1.6850   -9.6639    2.7927 C.ar      1 <0>         0.0821
     23 C17         1.9916   -8.3847    3.2252 C.ar      1 <0>        -0.1337
     24 C18         0.9864   -7.4530    3.3964 C.ar      1 <0>        -0.0909
     25 F1          2.6702  -10.5722    2.6210 F         1 <0>        -0.1408
     26 S2         -2.3428   -3.8092    0.1138 S.3       1 <0>        -0.0022
     27 C19        -2.4749   -2.6668   -1.2509 C.3       1 <0>        -0.1787
     28 H2         -2.3794   -3.2416   -2.1721 H         1 <0>         0.1392
     29 C20        -1.4085   -1.5659   -1.2906 C.3       1 <0>        -0.1188
     30 H3         -0.4418   -1.9127   -1.6558 H         1 <0>         0.1156
     31 C21        -2.1503   -0.5939   -2.2366 C.2       1 <0>         0.4792
     32 O3         -1.5808    0.3219   -3.0346 O.3       1 <0>        -0.6170
     33 N3         -3.4333   -0.8246   -2.1200 N.2       1 <0>        -0.6905
     34 C22        -3.7456   -1.8781   -1.3484 C.2       1 <0>         0.5277
     35 O4         -4.8219   -2.1373   -0.8499 O.2       1 <0>        -0.5106
     36 O5          3.5343    2.0978   -0.0569 O.3       1 <0>        -0.5005
     37 H4         -0.9733    1.9047    0.0231 H         1 <0>         0.1268
     38 H5          1.1417    3.1635   -0.0107 H         1 <0>         0.1273
     39 H6          3.3202   -0.5129   -0.0671 H         1 <0>         0.1257
     40 H7          1.2008   -1.7643   -0.0377 H         1 <0>         0.1239
     41 H8         -2.6475   -4.5526    4.1533 H         1 <0>         0.1307
     42 H9         -3.0535   -4.8534    2.4466 H         1 <0>         0.1305
     43 H10        -2.2232   -7.1450    3.6518 H         1 <0>         0.4147
     44 H11        -1.6646   -9.3599    2.5129 H         1 <0>         0.1379
     45 H12         0.1327  -11.0117    2.1991 H         1 <0>         0.1396
     46 H13         3.0179   -8.1141    3.4249 H         1 <0>         0.1387
     47 H14         1.2265   -6.4541    3.7295 H         1 <0>         0.1483
     48 H15         3.8877    2.2939    0.8216 H         1 <0>         0.3852
@<TRIPOS>BOND
     1    1    6 ar
     2    1    2 ar
     3    1   37 1
     4    2    3 ar
     5    2   38 1
     6    3    4 ar
     7    3   36 1
     8    4    5 ar
     9    4   39 1
    10    5    6 ar
    11    5   40 1
    12    6    7 1
    13    7    8 1
    14    7   29 1
    15    7    9 1
    16    9   14 1
    17    9   10 2
    18   10   11 1
    19   10   26 1
    20   11   12 am
    21   11   15 1
    22   12   13 2
    23   12   14 1
    24   15   16 1
    25   15   41 1
    26   15   42 1
    27   16   17 2
    28   16   18 am
    29   18   19 1
    30   18   43 1
    31   19   24 ar
    32   19   20 ar
    33   20   21 ar
    34   20   44 1
    35   21   22 ar
    36   21   45 1
    37   22   23 ar
    38   22   25 1
    39   23   24 ar
    40   23   46 1
    41   24   47 1
    42   26   27 1
    43   27   28 1
    44   27   34 1
    45   27   29 1
    46   29   30 1
    47   29   31 1
    48   31   32 1
    49   31   33 2
    50   33   34 1
    51   34   35 2
    52   36   48 1
@<TRIPOS>MOLECULE
ZINC08962757
   52    55     0     0     0
SMALL
USER_CHARGES
methyl 2-[2-(7-ethoxybenzofuran-2-yl)carbonylimino-6-sulfamoyl-benzothiazol-3-yl]acetate
@<TRIPOS>ATOM
      1 C1         -3.1433   -0.4092   -2.8041 C.3       1 <0>        -0.1527
      2 C2         -1.6454   -0.1333   -2.9497 C.3       1 <0>         0.0527
      3 O1         -1.3619    1.1981   -2.5148 O.3       1 <0>        -0.3110
      4 C3         -0.0665    1.6059   -2.5795 C.ar      1 <0>         0.1455
      5 C4          0.9090    0.7462   -3.0501 C.ar      1 <0>        -0.1824
      6 C5          2.2344    1.1504   -3.1210 C.ar      1 <0>        -0.0955
      7 C6          2.5980    2.4072   -2.7267 C.ar      1 <0>        -0.0978
      8 C7          1.6287    3.2929   -2.2483 C.ar      1 <0>        -0.1058
      9 C8          0.2824    2.8944   -2.1771 C.ar      1 <0>         0.0438
     10 O2         -0.4236    3.9306   -1.6821 O.3       1 <0>        -0.1566
     11 C9          0.3807    4.9843   -1.4332 C.2       1 <0>         0.0147
     12 C10         1.6606    4.6704   -1.7561 C.2       1 <0>        -0.1202
     13 C11        -0.0637    6.2812   -0.8926 C.2       1 <0>         0.5771
     14 O3          0.7466    7.1730   -0.7037 O.2       1 <0>        -0.4940
     15 N1         -1.3570    6.4805   -0.6089 N.2       1 <0>        -0.5524
     16 C12        -1.7574    7.6490   -0.1219 C.2       1 <0>         0.4642
     17 N2         -3.0156    8.0454    0.2212 N.pl3     1 <0>        -0.4984
     18 C13        -3.2348    9.3158    0.7217 C.ar      1 <0>         0.1866
     19 C14        -4.4585    9.8782    1.1250 C.ar      1 <0>        -0.1381
     20 C15        -4.5209   11.1662    1.5988 C.ar      1 <0>         0.0205
     21 C16        -3.3849   11.9524    1.6956 C.ar      1 <0>        -0.6834
     22 C17        -2.1660   11.4257    1.3065 C.ar      1 <0>         0.0734
     23 C18        -2.1029   10.1370    0.8319 C.ar      1 <0>        -0.1976
     24 S1         -0.7852    9.1016    0.2422 S.3       1 <0>         0.1252
     25 S2         -3.4902   13.6017    2.3065 S.o2      1 <0>         2.7080
     26 O4         -2.3698   14.3013    1.7825 O.2       1 <0>        -0.9561
     27 O5         -4.8270   14.0312    2.0877 O.2       1 <0>        -0.9560
     28 N3         -3.2786   13.5306    3.9474 N.pl3     1 <0>        -1.2487
     29 C19        -4.1401    7.1196    0.0637 C.3       1 <0>         0.1046
     30 C20        -3.9896    6.3620   -1.2303 C.2       1 <0>         0.4524
     31 O6         -3.1389    6.6862   -2.0247 O.2       1 <0>        -0.4634
     32 O7         -4.8007    5.3271   -1.5003 O.3       1 <0>        -0.3533
     33 C21        -4.5985    4.6438   -2.7654 C.3       1 <0>         0.0418
     34 H1         -3.7042    0.2993   -3.4136 H         1 <0>         0.0666
     35 H2         -3.3596   -1.4247   -3.1359 H         1 <0>         0.0810
     36 H3         -3.4332   -0.2988   -1.7592 H         1 <0>         0.0674
     37 H4         -1.3555   -0.2437   -3.9946 H         1 <0>         0.0650
     38 H5         -1.0846   -0.8418   -2.3402 H         1 <0>         0.0652
     39 H6          0.6365   -0.2502   -3.3653 H         1 <0>         0.1421
     40 H7          2.9843    0.4668   -3.4910 H         1 <0>         0.1363
     41 H8          3.6315    2.7153   -2.7849 H         1 <0>         0.1347
     42 H9          2.5276    5.3082   -1.6673 H         1 <0>         0.1744
     43 H10        -5.3619    9.2897    1.0612 H         1 <0>         0.1473
     44 H11        -5.4742   11.5735    1.9018 H         1 <0>         0.1603
     45 H12        -1.2694   12.0237    1.3748 H         1 <0>         0.1622
     46 H13        -3.1308   12.6754    4.3807 H         1 <0>         0.4177
     47 H14        -3.3024   14.3440    4.4752 H         1 <0>         0.4236
     48 H15        -4.1516    6.4170    0.8969 H         1 <0>         0.1332
     49 H16        -5.0740    7.6815    0.0493 H         1 <0>         0.1397
     50 H17        -4.7394    5.3480   -3.5853 H         1 <0>         0.0618
     51 H18        -3.5866    4.2403   -2.8028 H         1 <0>         0.0706
     52 H19        -5.3178    3.8300   -2.8577 H         1 <0>         0.1039
@<TRIPOS>BOND
     1    1    2 1
     2    1   34 1
     3    1   35 1
     4    1   36 1
     5    2    3 1
     6    2   37 1
     7    2   38 1
     8    3    4 1
     9    4    9 ar
    10    4    5 ar
    11    5    6 ar
    12    5   39 1
    13    6    7 ar
    14    6   40 1
    15    7    8 ar
    16    7   41 1
    17    8   12 1
    18    8    9 ar
    19    9   10 1
    20   10   11 1
    21   11   12 2
    22   11   13 1
    23   12   42 1
    24   13   14 2
    25   13   15 1
    26   15   16 2
    27   16   24 1
    28   16   17 1
    29   17   18 1
    30   17   29 1
    31   18   23 ar
    32   18   19 ar
    33   19   20 ar
    34   19   43 1
    35   20   21 ar
    36   20   44 1
    37   21   22 ar
    38   21   25 1
    39   22   23 ar
    40   22   45 1
    41   23   24 1
    42   25   26 2
    43   25   27 2
    44   25   28 1
    45   28   46 1
    46   28   47 1
    47   29   30 1
    48   29   48 1
    49   29   49 1
    50   30   31 2
    51   30   32 1
    52   32   33 1
    53   33   50 1
    54   33   51 1
    55   33   52 1
@<TRIPOS>MOLECULE
ZINC10891557
   63    66     0     0     0
SMALL
USER_CHARGES
1-(2,5-dioxabicyclo[4.4.0]deca-7,9,11-trien-8-ylsulfonyl)-N'-(4-tert-butylbenzoyl)-pyrrolidine-2-carbohydrazide
@<TRIPOS>ATOM
      1 C1          2.5670    0.1696   -1.2709 C.3       1 <0>        -0.1404
      2 C2          2.4893    1.0417   -0.0161 C.3       1 <0>        -0.0353
      3 C3          3.6425    2.0472   -0.0217 C.3       1 <0>        -0.1474
      4 C4          2.5909    0.1562    1.2275 C.3       1 <0>        -0.1406
      5 C5          1.1770    1.7823    0.0004 C.ar      1 <0>        -0.0370
      6 C6         -0.0126    1.0758    0.0080 C.ar      1 <0>        -0.1214
      7 C7         -1.2174    1.7478    0.0173 C.ar      1 <0>        -0.0809
      8 C8         -1.2345    3.1434    0.0307 C.ar      1 <0>        -0.1371
      9 C9         -0.0308    3.8500    0.0226 C.ar      1 <0>        -0.0495
     10 C10         1.1671    3.1659    0.0075 C.ar      1 <0>        -0.1290
     11 C11        -2.5219    3.8700    0.0470 C.2       1 <0>         0.5640
     12 O1         -2.5338    5.0855    0.0532 O.2       1 <0>        -0.5371
     13 N1         -3.6824    3.1848    0.0548 N.am      1 <0>        -0.5177
     14 N2         -4.9025    3.8733    0.0702 N.am      1 <0>        -0.5195
     15 C12        -6.0630    3.1881    0.0780 C.2       1 <0>         0.4973
     16 O2         -6.0512    1.9753    0.0718 O.2       1 <0>        -0.5051
     17 C13        -7.3753    3.9287    0.0946 C.3       1 <0>         0.1466
     18 H1         -7.4321    4.5622    0.9798 H         1 <0>         0.1110
     19 C14        -7.5068    4.7920   -1.1778 C.3       1 <0>        -0.1238
     20 C15        -9.0082    4.6482   -1.5417 C.3       1 <0>        -0.1282
     21 C16        -9.2881    3.1805   -1.1327 C.3       1 <0>         0.1171
     22 N3         -8.4903    2.9705    0.0930 N.pl3     1 <0>        -0.9906
     23 S1         -8.7969    1.8445    1.2680 S.o2      1 <0>         2.7120
     24 O3         -9.5551    0.8119    0.6530 O.2       1 <0>        -0.9438
     25 O4         -7.5612    1.5951    1.9237 O.2       1 <0>        -0.9263
     26 C17        -9.8528    2.6054    2.4558 C.ar      1 <0>        -0.6823
     27 C18       -11.2253    2.5267    2.3098 C.ar      1 <0>        -0.0152
     28 C19       -12.0567    3.1231    3.2387 C.ar      1 <0>        -0.1329
     29 C20       -11.5160    3.8019    4.3207 C.ar      1 <0>         0.1079
     30 C21       -10.1363    3.8790    4.4687 C.ar      1 <0>         0.0309
     31 C22        -9.3076    3.2748    3.5348 C.ar      1 <0>        -0.0128
     32 O5         -9.5847    4.5363    5.5252 O.3       1 <0>        -0.3026
     33 C23       -10.4368    5.4414    6.2356 C.3       1 <0>         0.0188
     34 C24       -11.7774    4.7391    6.4905 C.3       1 <0>         0.0168
     35 O6        -12.3474    4.3882    5.2248 O.3       1 <0>        -0.3010
     36 H2          2.4947    0.8004   -2.1568 H         1 <0>         0.0580
     37 H3          3.5162   -0.3661   -1.2828 H         1 <0>         0.0619
     38 H4          1.7455   -0.5468   -1.2669 H         1 <0>         0.0587
     39 H5          3.5871    2.6685    0.8722 H         1 <0>         0.0606
     40 H6          4.5916    1.5115   -0.0337 H         1 <0>         0.0614
     41 H7          3.5701    2.6781   -0.9077 H         1 <0>         0.0606
     42 H8          1.7693   -0.5602    1.2315 H         1 <0>         0.0588
     43 H9          3.5400   -0.3795    1.2155 H         1 <0>         0.0619
     44 H10         2.5355    0.7775    2.1214 H         1 <0>         0.0581
     45 H11         0.0021   -0.0041    0.0020 H         1 <0>         0.1310
     46 H12        -2.1453    1.1951    0.0184 H         1 <0>         0.1269
     47 H13        -0.0373    4.9300    0.0277 H         1 <0>         0.1383
     48 H14         2.0991    3.7114    0.0008 H         1 <0>         0.1370
     49 H15        -3.6730    2.2148    0.0498 H         1 <0>         0.4327
     50 H16        -4.9119    4.8433    0.0752 H         1 <0>         0.4324
     51 H17        -7.2594    5.8321   -0.9655 H         1 <0>         0.0978
     52 H18        -6.8772    4.4000   -1.9766 H         1 <0>         0.0866
     53 H19        -9.6190    5.3390   -0.9605 H         1 <0>         0.0836
     54 H20        -9.1669    4.7930   -2.6103 H         1 <0>         0.0924
     55 H21       -10.3485    3.0410   -0.9220 H         1 <0>         0.0849
     56 H22        -8.9639    2.4991   -1.9192 H         1 <0>         0.0792
     57 H23       -11.6485    1.9985    1.4682 H         1 <0>         0.1506
     58 H24       -13.1286    3.0609    3.1219 H         1 <0>         0.1475
     59 H25        -8.2351    3.3315    3.6487 H         1 <0>         0.1508
     60 H26       -10.5996    6.3386    5.6383 H         1 <0>         0.0816
     61 H27        -9.9763    5.7105    7.1862 H         1 <0>         0.1286
     62 H28       -12.4497    5.4122    7.0225 H         1 <0>         0.1292
     63 H29       -11.6145    3.8386    7.0826 H         1 <0>         0.0841
@<TRIPOS>BOND
     1    1    2 1
     2    1   36 1
     3    1   37 1
     4    1   38 1
     5    2    3 1
     6    2    4 1
     7    2    5 1
     8    3   39 1
     9    3   40 1
    10    3   41 1
    11    4   42 1
    12    4   43 1
    13    4   44 1
    14    5   10 ar
    15    5    6 ar
    16    6    7 ar
    17    6   45 1
    18    7    8 ar
    19    7   46 1
    20    8    9 ar
    21    8   11 1
    22    9   10 ar
    23    9   47 1
    24   10   48 1
    25   11   12 2
    26   11   13 am
    27   13   14 1
    28   13   49 1
    29   14   15 am
    30   14   50 1
    31   15   16 2
    32   15   17 1
    33   17   18 1
    34   17   22 1
    35   17   19 1
    36   19   20 1
    37   19   51 1
    38   19   52 1
    39   20   21 1
    40   20   53 1
    41   20   54 1
    42   21   22 1
    43   21   55 1
    44   21   56 1
    45   22   23 1
    46   23   24 2
    47   23   25 2
    48   23   26 1
    49   26   31 ar
    50   26   27 ar
    51   27   28 ar
    52   27   57 1
    53   28   29 ar
    54   28   58 1
    55   29   35 1
    56   29   30 ar
    57   30   31 ar
    58   30   32 1
    59   31   59 1
    60   32   33 1
    61   33   34 1
    62   33   60 1
    63   33   61 1
    64   34   35 1
    65   34   62 1
    66   34   63 1
@<TRIPOS>MOLECULE
ZINC20795794
   61    64     0     0     0
SMALL
USER_CHARGES
ethyl (6S)-2-[[2-[(4S)-4-(4-cyanophenyl)-4-methyl-2,5-dioxo-imidazolidin-1-yl]acetyl]amino]-6-methyl-4,5,6,7-tetrahydrobenzothiophene-3-carboxylate
@<TRIPOS>ATOM
      1 C1         -5.5288    0.8701    0.8686 C.3       1 <0>        -0.1552
      2 C2         -4.5889    0.6421   -0.3170 C.3       1 <0>         0.0560
      3 O1         -3.3522    0.0443    0.1537 O.3       1 <0>        -0.3500
      4 C3         -2.4096   -0.2229   -0.7734 C.2       1 <0>         0.5325
      5 O2         -2.6164    0.0371   -1.9435 O.2       1 <0>        -0.4939
      6 C4         -1.1372   -0.8258   -0.3711 C.2       1 <0>        -0.2082
      7 C5          0.0021   -0.0041    0.0020 C.2       1 <0>        -0.0617
      8 C6          1.1136   -0.6865    0.3519 C.2       1 <0>        -0.2061
      9 S1          0.6672   -2.3922    0.1918 S.3       1 <0>         0.2376
     10 C7         -0.9736   -2.2043   -0.3321 C.2       1 <0>         0.0880
     11 N1         -1.8983   -3.1904   -0.6381 N.am      1 <0>        -0.6300
     12 C8         -1.5549   -4.4900   -0.5403 C.2       1 <0>         0.4989
     13 O3         -0.4368   -4.7967   -0.1845 O.2       1 <0>        -0.4851
     14 C9         -2.5603   -5.5622   -0.8730 C.3       1 <0>         0.1047
     15 N2         -1.9478   -6.8801   -0.6889 N.am      1 <0>        -0.5616
     16 C10        -1.9717   -7.5713    0.4678 C.2       1 <0>         0.5399
     17 O4         -2.4848   -7.2326    1.5127 O.2       1 <0>        -0.4531
     18 C11        -1.2246   -8.8607    0.1903 C.3       1 <0>         0.1553
     19 N3         -0.8293   -8.7344   -1.2232 N.am      1 <0>        -0.7245
     20 C12        -1.3003   -7.5489   -1.6500 C.2       1 <0>         0.7210
     21 O5         -1.1515   -7.1305   -2.7814 O.2       1 <0>        -0.5327
     22 C13        -2.1434  -10.0682    0.3865 C.3       1 <0>        -0.1471
     23 C14        -0.0082   -8.9692    1.0734 C.ar      1 <0>        -0.0659
     24 C15        -0.0103   -8.3775    2.3241 C.ar      1 <0>        -0.1068
     25 C16         1.0979   -8.4770    3.1395 C.ar      1 <0>        -0.0621
     26 C17         2.2275   -9.1674    2.6956 C.ar      1 <0>        -0.0161
     27 C18         2.2247   -9.7576    1.4302 C.ar      1 <0>        -0.0667
     28 C19         1.1075   -9.6552    0.6274 C.ar      1 <0>        -0.0965
     29 C20         3.3838   -9.2693    3.5342 C.1       1 <0>         0.2480
     30 N4          4.3011   -9.3502    4.1994 N.1       1 <0>        -0.4052
     31 C21         2.4287   -0.1122    0.7805 C.3       1 <0>        -0.0316
     32 C22         2.2198    1.3693    1.1264 C.3       1 <0>        -0.0855
     33 H1          1.6698    1.4622    2.0745 H         1 <0>         0.0775
     34 C23         1.4228    2.0315   -0.0006 C.3       1 <0>        -0.1138
     35 C24        -0.0186    1.5195    0.0104 C.3       1 <0>        -0.0642
     36 C25         3.5780    2.0585    1.2719 C.3       1 <0>        -0.1498
     37 H2         -6.4657    1.3230    0.5120 H         1 <0>         0.0826
     38 H3         -5.0483    1.5440    1.5931 H         1 <0>         0.0684
     39 H4         -5.7481   -0.0928    1.3531 H         1 <0>         0.0676
     40 H5         -5.0694   -0.0318   -1.0415 H         1 <0>         0.0716
     41 H6         -4.3696    1.6050   -0.8015 H         1 <0>         0.0726
     42 H7         -2.9125   -2.9123   -0.9608 H         1 <0>         0.4472
     43 H8         -3.4316   -5.4668   -0.2084 H         1 <0>         0.1386
     44 H9         -2.8829   -5.4506   -1.9187 H         1 <0>         0.1408
     45 H10        -0.2573   -9.5390   -1.7083 H         1 <0>         0.4716
     46 H11        -1.5834  -10.9923    0.1807 H         1 <0>         0.0873
     47 H12        -2.9970   -9.9954   -0.3035 H         1 <0>         0.0760
     48 H13        -2.5104  -10.0850    1.4233 H         1 <0>         0.0890
     49 H14        -0.8829   -7.8397    2.6642 H         1 <0>         0.1490
     50 H15         1.0935   -8.0182    4.1172 H         1 <0>         0.1390
     51 H16         3.0949  -10.2934    1.0809 H         1 <0>         0.1396
     52 H17         1.1039  -10.1112   -0.3516 H         1 <0>         0.1343
     53 H18         2.7965   -0.6567    1.6626 H         1 <0>         0.0824
     54 H19         3.1556   -0.2087   -0.0394 H         1 <0>         0.0850
     55 H20         1.4215    3.1221    0.1431 H         1 <0>         0.0726
     56 H21         1.8862    1.7898   -0.9685 H         1 <0>         0.0687
     57 H22        -0.5506    1.8839   -0.8808 H         1 <0>         0.0741
     58 H23        -0.5335    1.8742    0.9154 H         1 <0>         0.0808
     59 H24         3.4261    3.1194    1.5196 H         1 <0>         0.0592
     60 H25         4.1329    1.9787    0.3255 H         1 <0>         0.0574
     61 H26         4.1514    1.5728    2.0752 H         1 <0>         0.0585
@<TRIPOS>BOND
     1    1    2 1
     2    1   37 1
     3    1   38 1
     4    1   39 1
     5    2    3 1
     6    2   40 1
     7    2   41 1
     8    3    4 1
     9    4    5 2
    10    4    6 1
    11    6   10 2
    12    6    7 1
    13    7   35 1
    14    7    8 2
    15    8    9 1
    16    8   31 1
    17    9   10 1
    18   10   11 1
    19   11   12 am
    20   11   42 1
    21   12   13 2
    22   12   14 1
    23   14   15 1
    24   14   43 1
    25   14   44 1
    26   15   20 am
    27   15   16 am
    28   16   17 2
    29   16   18 1
    30   18   19 1
    31   18   22 1
    32   18   23 1
    33   19   20 am
    34   19   45 1
    35   20   21 2
    36   22   46 1
    37   22   47 1
    38   22   48 1
    39   23   28 ar
    40   23   24 ar
    41   24   25 ar
    42   24   49 1
    43   25   26 ar
    44   25   50 1
    45   26   27 ar
    46   26   29 1
    47   27   28 ar
    48   27   51 1
    49   28   52 1
    50   29   30 3
    51   31   32 1
    52   31   53 1
    53   31   54 1
    54   32   33 1
    55   32   34 1
    56   32   36 1
    57   34   35 1
    58   34   55 1
    59   34   56 1
    60   35   57 1
    61   35   58 1
    62   36   59 1
    63   36   60 1
    64   36   61 1
@<TRIPOS>MOLECULE
ZINC36211566
   68    72     0     0     0
SMALL
USER_CHARGES

@<TRIPOS>ATOM
      1 C1         -1.7430    0.5146    0.4604 C.3       1 <0>        -0.1523
      2 C2         -2.0258   -0.9844    0.3430 C.3       1 <0>        -0.1326
      3 C3         -3.5133   -1.2020    0.0587 C.3       1 <0>         0.1423
      4 H1         -4.1064   -0.7067    0.8275 H         1 <0>         0.0881
      5 C4         -3.8198   -2.7010    0.0649 C.3       1 <0>        -0.1660
      6 N1         -3.8470   -0.6407   -1.2528 N.am      1 <0>        -0.7228
      7 C5         -5.1101   -0.2522   -1.5179 C.2       1 <0>         0.5060
      8 O1         -5.9704   -0.3672   -0.6708 O.2       1 <0>        -0.5233
      9 C6         -5.4534    0.3251   -2.8669 C.3       1 <0>         0.1346
     10 H2         -5.2354   -0.4091   -3.6425 H         1 <0>         0.1199
     11 C7         -4.6204    1.5854   -3.1092 C.3       1 <0>        -0.0912
     12 C8         -4.9253    2.6155   -2.0192 C.3       1 <0>        -0.1353
     13 C9         -4.0643    3.8622   -2.2451 C.3       1 <0>         0.0975
     14 N2         -4.2860    4.3484   -3.6138 N.am      1 <0>        -0.6055
     15 C10        -4.1087    3.4133   -4.7331 C.3       1 <0>         0.1123
     16 C11        -4.9692    2.1715   -4.4792 C.3       1 <0>        -0.1294
     17 C12        -4.6457    5.6277   -3.8382 C.2       1 <0>         0.5687
     18 O2         -4.7590    6.0364   -4.9777 O.2       1 <0>        -0.5234
     19 C13        -4.9021    6.5327   -2.7007 C.ar      1 <0>        -0.1202
     20 C14        -3.9621    6.6506   -1.6740 C.ar      1 <0>        -0.0799
     21 C15        -4.2026    7.4965   -0.6135 C.ar      1 <0>        -0.1040
     22 C16        -5.3781    8.2338   -0.5603 C.ar      1 <0>         0.0565
     23 C17        -6.3213    8.1201   -1.5823 C.ar      1 <0>         0.0310
     24 C18        -6.0829    7.2780   -2.6509 C.ar      1 <0>        -0.0517
     25 O3         -7.3750    8.9397   -1.2955 O.3       1 <0>        -0.3037
     26 C19        -7.2540    9.2435    0.1067 C.3       1 <0>         0.2120
     27 O4         -5.8424    9.1236    0.3628 O.3       1 <0>        -0.3039
     28 N3         -6.8776    0.6665   -2.9039 N.am      1 <0>        -0.7026
     29 C20        -7.7884   -0.2756   -3.2191 C.2       1 <0>         0.5755
     30 O5         -7.4280   -1.4088   -3.4728 O.2       1 <0>        -0.5267
     31 C21        -9.2233    0.0683   -3.2564 C.ar      1 <0>        -0.1254
     32 C22        -9.6388    1.3712   -2.9709 C.ar      1 <0>        -0.0706
     33 C23       -10.9784    1.6906   -3.0072 C.ar      1 <0>        -0.1074
     34 C24       -11.9197    0.7210   -3.3265 C.ar      1 <0>         0.0627
     35 C25       -11.5113   -0.5824   -3.6121 C.ar      1 <0>         0.0254
     36 C26       -10.1690   -0.9070   -3.5830 C.ar      1 <0>        -0.0395
     37 O6        -12.6166   -1.3335   -3.8919 O.3       1 <0>        -0.3037
     38 C27       -13.7315   -0.5823   -3.3765 C.3       1 <0>         0.2119
     39 O7        -13.2781    0.7832   -3.4286 O.3       1 <0>        -0.3039
     40 H3         -0.6832    0.6697    0.6629 H         1 <0>         0.0570
     41 H4         -2.0105    1.0091   -0.4734 H         1 <0>         0.0544
     42 H5         -2.3336    0.9331    1.2753 H         1 <0>         0.0554
     43 H6         -1.4351   -1.4028   -0.4719 H         1 <0>         0.0685
     44 H7         -1.7582   -1.4789    1.2768 H         1 <0>         0.0790
     45 H8         -3.5715   -3.1186    1.0406 H         1 <0>         0.0655
     46 H9         -4.8795   -2.8560   -0.1377 H         1 <0>         0.0612
     47 H10        -3.2267   -3.1963   -0.7039 H         1 <0>         0.0573
     48 H11        -3.1590   -0.5487   -1.9303 H         1 <0>         0.3984
     49 H12        -3.5608    1.3312   -3.0821 H         1 <0>         0.0969
     50 H13        -5.9796    2.8889   -2.0616 H         1 <0>         0.0704
     51 H14        -4.6987    2.1890   -1.0420 H         1 <0>         0.0837
     52 H15        -4.3478    4.6363   -1.5320 H         1 <0>         0.0992
     53 H16        -3.0124    3.6087   -2.1134 H         1 <0>         0.0777
     54 H17        -4.4215    3.8910   -5.6615 H         1 <0>         0.0991
     55 H18        -3.0605    3.1231   -4.8042 H         1 <0>         0.0741
     56 H19        -4.7738    1.4291   -5.2530 H         1 <0>         0.0860
     57 H20        -6.0231    2.4491   -4.4985 H         1 <0>         0.0740
     58 H21        -3.0467    6.0788   -1.7117 H         1 <0>         0.1459
     59 H22        -3.4746    7.5863    0.1792 H         1 <0>         0.1448
     60 H23        -6.8099    7.1928   -3.4450 H         1 <0>         0.1436
     61 H24        -7.5951   10.2587    0.3093 H         1 <0>         0.1365
     62 H25        -7.8140    8.5240    0.7041 H         1 <0>         0.0893
     63 H26        -7.1651    1.5705   -2.7015 H         1 <0>         0.4032
     64 H27        -8.9097    2.1281   -2.7221 H         1 <0>         0.1386
     65 H28       -11.2976    2.6984   -2.7862 H         1 <0>         0.1444
     66 H29        -9.8512   -1.9143   -3.8086 H         1 <0>         0.1501
     67 H30       -14.6096   -0.7185   -4.0077 H         1 <0>         0.1368
     68 H31       -13.9481   -0.8748   -2.3491 H         1 <0>         0.0893
@<TRIPOS>BOND
     1    1    2 1
     2    1   40 1
     3    1   41 1
     4    1   42 1
     5    2    3 1
     6    2   43 1
     7    2   44 1
     8    3    4 1
     9    3    5 1
    10    3    6 1
    11    5   45 1
    12    5   46 1
    13    5   47 1
    14    6    7 am
    15    6   48 1
    16    7    8 2
    17    7    9 1
    18    9   10 1
    19    9   11 1
    20    9   28 1
    21   11   16 1
    22   11   12 1
    23   11   49 1
    24   12   13 1
    25   12   50 1
    26   12   51 1
    27   13   14 1
    28   13   52 1
    29   13   53 1
    30   14   15 1
    31   14   17 am
    32   15   16 1
    33   15   54 1
    34   15   55 1
    35   16   56 1
    36   16   57 1
    37   17   18 2
    38   17   19 1
    39   19   24 ar
    40   19   20 ar
    41   20   21 ar
    42   20   58 1
    43   21   22 ar
    44   21   59 1
    45   22   27 1
    46   22   23 ar
    47   23   24 ar
    48   23   25 1
    49   24   60 1
    50   25   26 1
    51   26   27 1
    52   26   61 1
    53   26   62 1
    54   28   29 am
    55   28   63 1
    56   29   30 2
    57   29   31 1
    58   31   36 ar
    59   31   32 ar
    60   32   33 ar
    61   32   64 1
    62   33   34 ar
    63   33   65 1
    64   34   39 1
    65   34   35 ar
    66   35   36 ar
    67   35   37 1
    68   36   66 1
    69   37   38 1
    70   38   39 1
    71   38   67 1
    72   38   68 1
@<TRIPOS>MOLECULE
ZINC65083487
   57    60     0     0     0
SMALL
USER_CHARGES

@<TRIPOS>ATOM
      1 C1          0.0066    1.5589   -0.0199 C.3       1 <0>        -0.1265
      2 C2          0.0175    0.0519   -0.0204 C.ar      1 <0>        -0.0268
      3 C3          0.0181   -0.6388   -1.2178 C.ar      1 <0>        -0.1412
      4 C4          0.0281   -2.0211   -1.2184 C.ar      1 <0>        -0.0148
      5 C5          0.0379   -2.7127   -0.0215 C.ar      1 <0>        -0.6847
      6 C6          0.0382   -2.0220    1.1759 C.ar      1 <0>        -0.0151
      7 C7          0.0325   -0.6397    1.1764 C.ar      1 <0>        -0.1421
      8 S1          0.0495   -4.4747   -0.0222 S.o2      1 <0>         2.6947
      9 O1         -0.4932   -4.8849    1.2254 O.2       1 <0>        -0.9498
     10 O2         -0.5041   -4.8840   -1.2653 O.2       1 <0>        -0.9479
     11 N1          1.6346   -4.9539   -0.0293 N.pl3     1 <0>        -0.9954
     12 C8          2.3613   -5.1683   -1.2898 C.3       1 <0>         0.1187
     13 C9          3.5053   -4.1588   -1.4078 C.3       1 <0>        -0.0597
     14 C10         4.2851   -4.1328   -0.1012 C.2       1 <0>         0.1183
     15 C11         3.7341   -4.5982    1.0491 C.2       1 <0>        -0.2589
     16 S2          5.0247   -4.3387    2.2324 S.3       1 <0>         0.1489
     17 C12         6.1555   -3.6666    1.1786 C.2       1 <0>         0.2951
     18 N2          5.5264   -3.6691    0.0243 N.2       1 <0>        -0.5178
     19 N3          7.4403   -3.2183    1.4614 N.am      1 <0>        -0.6266
     20 C13         8.2067   -2.7056    0.4784 C.2       1 <0>         0.6999
     21 O3          7.7741   -2.6351   -0.6557 O.2       1 <0>        -0.5051
     22 N4          9.4527   -2.2709    0.7526 N.am      1 <0>        -0.6679
     23 C14        10.2832   -1.8248   -0.2843 C.ar      1 <0>         0.1730
     24 C15         9.7396   -1.1557   -1.3707 C.ar      1 <0>        -0.1163
     25 C16        10.5637   -0.7156   -2.3950 C.ar      1 <0>         0.1151
     26 C17        11.9305   -0.9440   -2.3337 C.ar      1 <0>        -0.1820
     27 C18        12.4745   -1.6111   -1.2520 C.ar      1 <0>        -0.1489
     28 C19        11.6566   -2.0475   -0.2229 C.ar      1 <0>         0.0691
     29 O4         12.1937   -2.6982    0.8445 O.3       1 <0>        -0.3200
     30 C20        13.6096   -2.8917    0.8410 C.3       1 <0>         0.0290
     31 O5         10.0316   -0.0600   -3.4608 O.3       1 <0>        -0.3128
     32 C21        10.9388    0.3654   -4.4797 C.3       1 <0>         0.0270
     33 C22         2.3743   -5.1763    1.2310 C.3       1 <0>         0.2218
     34 H1          1.0316    1.9296   -0.0283 H         1 <0>         0.0797
     35 H2         -0.5173    1.9188   -0.9053 H         1 <0>         0.0739
     36 H3         -0.5024    1.9182    0.8746 H         1 <0>         0.0734
     37 H4          0.0105   -0.0985   -2.1529 H         1 <0>         0.1334
     38 H5          0.0279   -2.5608   -2.1539 H         1 <0>         0.1403
     39 H6          0.0455   -2.5623    2.1110 H         1 <0>         0.1388
     40 H7          0.0365   -0.1000    2.1119 H         1 <0>         0.1325
     41 H8          2.7676   -6.1797   -1.3062 H         1 <0>         0.0882
     42 H9          1.6772   -5.0403   -2.1287 H         1 <0>         0.1075
     43 H10         4.1680   -4.4527   -2.2218 H         1 <0>         0.1013
     44 H11         3.0975   -3.1680   -1.6084 H         1 <0>         0.0880
     45 H12         7.7855   -3.2745    2.3661 H         1 <0>         0.4245
     46 H13         9.7745   -2.2668    1.6677 H         1 <0>         0.4138
     47 H14         8.6755   -0.9781   -1.4189 H         1 <0>         0.1574
     48 H15        12.5708   -0.6004   -3.1326 H         1 <0>         0.1337
     49 H16        13.5390   -1.7882   -1.2071 H         1 <0>         0.1371
     50 H17        13.9061   -3.4217    1.7462 H         1 <0>         0.1011
     51 H18        13.8940   -3.4779   -0.0328 H         1 <0>         0.0558
     52 H19        14.1086   -1.9233    0.8070 H         1 <0>         0.0560
     53 H20        10.3857    0.8738   -5.2695 H         1 <0>         0.1013
     54 H21        11.6716    1.0491   -4.0513 H         1 <0>         0.0554
     55 H22        11.4509   -0.5023   -4.8955 H         1 <0>         0.0556
     56 H23         1.8649   -4.6762    2.0546 H         1 <0>         0.1027
     57 H24         2.4515   -6.2445    1.4336 H         1 <0>         0.0983
@<TRIPOS>BOND
     1    1    2 1
     2    1   34 1
     3    1   35 1
     4    1   36 1
     5    2    7 ar
     6    2    3 ar
     7    3    4 ar
     8    3   37 1
     9    4    5 ar
    10    4   38 1
    11    5    6 ar
    12    5    8 1
    13    6    7 ar
    14    6   39 1
    15    7   40 1
    16    8    9 2
    17    8   10 2
    18    8   11 1
    19   11   33 1
    20   11   12 1
    21   12   13 1
    22   12   41 1
    23   12   42 1
    24   13   14 1
    25   13   43 1
    26   13   44 1
    27   14   18 1
    28   14   15 2
    29   15   16 1
    30   15   33 1
    31   16   17 1
    32   17   18 2
    33   17   19 1
    34   19   20 am
    35   19   45 1
    36   20   21 2
    37   20   22 am
    38   22   23 1
    39   22   46 1
    40   23   28 ar
    41   23   24 ar
    42   24   25 ar
    43   24   47 1
    44   25   26 ar
    45   25   31 1
    46   26   27 ar
    47   26   48 1
    48   27   28 ar
    49   27   49 1
    50   28   29 1
    51   29   30 1
    52   30   50 1
    53   30   51 1
    54   30   52 1
    55   31   32 1
    56   32   53 1
    57   32   54 1
    58   32   55 1
    59   33   56 1
    60   33   57 1
@<TRIPOS>MOLECULE
ZINC13349160
   57    60     0     0     0
SMALL
USER_CHARGES
1-(4-ethylphenyl)-3-[4-methyl-2-(p-tolylsulfonylamino)-1,3-benzothiazol-6-yl]urea
@<TRIPOS>ATOM
      1 C1          9.7590   -1.0592   10.3529 C.3       1 <0>        -0.1474
      2 C2          8.4483   -0.2790   10.2329 C.3       1 <0>        -0.0855
      3 C3          7.4146   -1.1358    9.5485 C.ar      1 <0>        -0.0933
      4 C4          6.5903   -1.9542   10.2988 C.ar      1 <0>        -0.0995
      5 C5          5.6413   -2.7400    9.6747 C.ar      1 <0>        -0.1396
      6 C6          5.5158   -2.7079    8.2920 C.ar      1 <0>         0.1509
      7 C7          6.3493   -1.8896    7.5409 C.ar      1 <0>        -0.1137
      8 C8          7.2921   -1.1017    8.1715 C.ar      1 <0>        -0.0997
      9 N1          4.5553   -3.5028    7.6566 N.am      1 <0>        -0.6792
     10 C9          3.9263   -3.0482    6.5547 C.2       1 <0>         0.7049
     11 O1          4.2523   -1.9846    6.0637 O.2       1 <0>        -0.5521
     12 N2          2.9359   -3.7724    5.9970 N.am      1 <0>        -0.6768
     13 C10         2.3482   -3.3489    4.7973 C.ar      1 <0>         0.1831
     14 C11         1.9213   -4.2805    3.8539 C.ar      1 <0>        -0.1303
     15 C12         1.3439   -3.8895    2.6747 C.ar      1 <0>        -0.0091
     16 C13         1.1615   -2.5195    2.3764 C.ar      1 <0>         0.0858
     17 C14         1.6053   -1.6010    3.3543 C.ar      1 <0>        -0.1296
     18 C15         2.1837   -1.9954    4.5344 C.ar      1 <0>        -0.0663
     19 S1          1.2120   -0.0360    2.6106 S.3       1 <0>         0.0438
     20 C16         0.4977   -0.6764    1.1027 C.2       1 <0>         0.3704
     21 N3          0.6131   -1.9739    1.2669 N.2       1 <0>        -0.5217
     22 N4         -0.0347    0.0172    0.0341 N.pl3     1 <0>        -0.9904
     23 S2         -0.0707    1.6727    0.0567 S.o2      1 <0>         2.6783
     24 O2         -0.6442    2.0833   -1.1769 O.2       1 <0>        -0.9244
     25 O3         -0.6161    2.0500    1.3134 O.2       1 <0>        -0.9221
     26 C17         1.6007    2.2303    0.0453 C.ar      1 <0>        -0.6918
     27 C18         2.2681    2.4384    1.2379 C.ar      1 <0>        -0.0049
     28 C19         3.5807    2.8717    1.2288 C.ar      1 <0>        -0.1366
     29 C20         4.2230    3.1060    0.0274 C.ar      1 <0>        -0.0174
     30 C21         3.5541    2.9024   -1.1651 C.ar      1 <0>        -0.1418
     31 C22         2.2429    2.4650   -1.1562 C.ar      1 <0>        -0.0083
     32 C23         5.6525    3.5828    0.0176 C.3       1 <0>        -0.1282
     33 C24         0.8971   -4.9328    1.6832 C.3       1 <0>        -0.1125
     34 H1          9.5913   -1.9634   10.9381 H         1 <0>         0.0554
     35 H2         10.1127   -1.3305    9.3583 H         1 <0>         0.0556
     36 H3         10.5067   -0.4395   10.8480 H         1 <0>         0.0581
     37 H4          8.6160    0.6252    9.6477 H         1 <0>         0.0718
     38 H5          8.0946   -0.0077   11.2276 H         1 <0>         0.0717
     39 H6          6.6884   -1.9787   11.3741 H         1 <0>         0.1261
     40 H7          4.9974   -3.3784   10.2613 H         1 <0>         0.1253
     41 H8          6.2571   -1.8659    6.4651 H         1 <0>         0.1403
     42 H9          7.9374   -0.4615    7.5883 H         1 <0>         0.1248
     43 H10         4.3422   -4.3810    8.0092 H         1 <0>         0.4093
     44 H11         2.6298   -4.5868    6.4260 H         1 <0>         0.4130
     45 H12         2.0486   -5.3337    4.0562 H         1 <0>         0.1394
     46 H13         2.5088   -1.2583    5.2537 H         1 <0>         0.1536
     47 H14        -0.3877   -0.4652   -0.7298 H         1 <0>         0.4424
     48 H15         1.7649    2.2593    2.1766 H         1 <0>         0.1419
     49 H16         4.1034    3.0304    2.1605 H         1 <0>         0.1379
     50 H17         4.0559    3.0855   -2.1038 H         1 <0>         0.1370
     51 H18         1.7202    2.3064   -2.0878 H         1 <0>         0.1438
     52 H19         5.6722    4.6726    0.0312 H         1 <0>         0.0829
     53 H20         6.1696    3.1991    0.8972 H         1 <0>         0.0756
     54 H21         6.1499    3.2217   -0.8825 H         1 <0>         0.0749
     55 H22         1.7153   -5.1579    0.9992 H         1 <0>         0.0759
     56 H23         0.6083   -5.8393    2.2151 H         1 <0>         0.0702
     57 H24         0.0446   -4.5556    1.1184 H         1 <0>         0.0780
@<TRIPOS>BOND
     1    1    2 1
     2    1   34 1
     3    1   35 1
     4    1   36 1
     5    2    3 1
     6    2   37 1
     7    2   38 1
     8    3    8 ar
     9    3    4 ar
    10    4    5 ar
    11    4   39 1
    12    5    6 ar
    13    5   40 1
    14    6    7 ar
    15    6    9 1
    16    7    8 ar
    17    7   41 1
    18    8   42 1
    19    9   10 am
    20    9   43 1
    21   10   11 2
    22   10   12 am
    23   12   13 1
    24   12   44 1
    25   13   18 ar
    26   13   14 ar
    27   14   15 ar
    28   14   45 1
    29   15   16 ar
    30   15   33 1
    31   16   21 1
    32   16   17 ar
    33   17   18 ar
    34   17   19 1
    35   18   46 1
    36   19   20 1
    37   20   21 2
    38   20   22 1
    39   22   23 1
    40   22   47 1
    41   23   24 2
    42   23   25 2
    43   23   26 1
    44   26   31 ar
    45   26   27 ar
    46   27   28 ar
    47   27   48 1
    48   28   29 ar
    49   28   49 1
    50   29   30 ar
    51   29   32 1
    52   30   31 ar
    53   30   50 1
    54   31   51 1
    55   32   52 1
    56   32   53 1
    57   32   54 1
    58   33   55 1
    59   33   56 1
    60   33   57 1
@<TRIPOS>MOLECULE
ZINC25613576
   53    56     0     0     0
SMALL
USER_CHARGES
N-[3-(phenylcarbamoylamino)phenyl]-2-(2-thienylmethylsulfanyl)benzamide
@<TRIPOS>ATOM
      1 C1         -6.5735    9.8326  -11.7958 C.ar      1 <0>        -0.1379
      2 C2         -5.6714    9.6677  -10.7608 C.ar      1 <0>        -0.0998
      3 C3         -5.2996    8.3986  -10.3626 C.ar      1 <0>        -0.1219
      4 C4         -5.8326    7.2875  -11.0028 C.ar      1 <0>         0.1694
      5 C5         -6.7343    7.4566  -12.0453 C.ar      1 <0>        -0.1483
      6 C6         -7.1058    8.7283  -12.4356 C.ar      1 <0>        -0.1003
      7 N1         -5.4575    6.0003  -10.6020 N.am      1 <0>        -0.6963
      8 C7         -5.2053    5.7457   -9.3027 C.2       1 <0>         0.7081
      9 O1         -5.3971    6.6069   -8.4661 O.2       1 <0>        -0.5599
     10 N2         -4.7405    4.5365   -8.9308 N.am      1 <0>        -0.6931
     11 C8         -4.3865    4.3029   -7.5973 C.ar      1 <0>         0.1883
     12 C9         -5.1047    4.9048   -6.5715 C.ar      1 <0>        -0.1402
     13 C10        -4.7562    4.6743   -5.2547 C.ar      1 <0>        -0.0792
     14 C11        -3.6930    3.8449   -4.9533 C.ar      1 <0>        -0.1662
     15 C12        -2.9707    3.2404   -5.9744 C.ar      1 <0>         0.1721
     16 C13        -3.3144    3.4749   -7.2984 C.ar      1 <0>        -0.1581
     17 N3         -1.8947    2.4010   -5.6687 N.am      1 <0>        -0.6764
     18 C14        -1.5293    1.4323   -6.5316 C.2       1 <0>         0.5565
     19 O2         -2.1980    1.2187   -7.5247 O.2       1 <0>        -0.4930
     20 C15        -0.3195    0.6321   -6.2719 C.ar      1 <0>        -0.1314
     21 C16         0.4521    0.8735   -5.1318 C.ar      1 <0>        -0.0628
     22 C17         1.5815    0.1218   -4.8946 C.ar      1 <0>        -0.1349
     23 C18         1.9588   -0.8754   -5.7809 C.ar      1 <0>        -0.0658
     24 C19         1.2061   -1.1298   -6.9081 C.ar      1 <0>        -0.1453
     25 C20         0.0655   -0.3783   -7.1681 C.ar      1 <0>        -0.0447
     26 S1         -0.8956   -0.6968   -8.6101 S.3       1 <0>         0.0194
     27 C21        -0.0184   -2.0561   -9.4307 C.3       1 <0>        -0.0792
     28 C22        -0.7456   -2.4318  -10.6961 C.2       1 <0>        -0.1342
     29 C23        -0.5807   -1.9473  -11.9513 C.2       1 <0>        -0.1384
     30 C24        -1.3687   -2.4464  -12.9714 C.2       1 <0>        -0.1583
     31 C25        -2.2831   -3.4056  -12.6864 C.2       1 <0>        -0.1666
     32 S2         -2.0422   -3.6359  -10.9325 S.3       1 <0>         0.0539
     33 H1         -6.8627   10.8261  -12.1054 H         1 <0>         0.1228
     34 H2         -5.2575   10.5322  -10.2632 H         1 <0>         0.1248
     35 H3         -4.5947    8.2704   -9.5545 H         1 <0>         0.1324
     36 H4         -7.1472    6.5945  -12.5480 H         1 <0>         0.1245
     37 H5         -7.8099    8.8604  -13.2438 H         1 <0>         0.1257
     38 H6         -5.3685    5.1962  -11.3474 H         1 <0>         0.4304
     39 H7         -4.6394    3.7333   -9.6755 H         1 <0>         0.4325
     40 H8         -5.9364    5.5534   -6.8037 H         1 <0>         0.1401
     41 H9         -5.3163    5.1432   -4.4591 H         1 <0>         0.1293
     42 H10        -3.4231    3.6667   -3.9229 H         1 <0>         0.1256
     43 H11        -2.7516    3.0096   -8.0942 H         1 <0>         0.1462
     44 H12        -1.3466    2.5314   -4.7240 H         1 <0>         0.4334
     45 H13         0.1628    1.6485   -4.4374 H         1 <0>         0.1311
     46 H14         2.1763    0.3099   -4.0130 H         1 <0>         0.1340
     47 H15         2.8460   -1.4594   -5.5853 H         1 <0>         0.1329
     48 H16         1.5048   -1.9109   -7.5914 H         1 <0>         0.1309
     49 H17         1.0049   -1.7364   -9.6770 H         1 <0>         0.1075
     50 H18         0.0210   -2.9259   -8.7584 H         1 <0>         0.1011
     51 H19         0.1556   -1.1830  -12.1514 H         1 <0>         0.1349
     52 H20        -1.2573   -2.0779  -13.9804 H         1 <0>         0.1365
     53 H21        -2.9749   -3.9041  -13.3491 H         1 <0>         0.1879
@<TRIPOS>BOND
     1    1    6 ar
     2    1    2 ar
     3    1   33 1
     4    2    3 ar
     5    2   34 1
     6    3    4 ar
     7    3   35 1
     8    4    5 ar
     9    4    7 1
    10    5    6 ar
    11    5   36 1
    12    6   37 1
    13    7    8 am
    14    7   38 1
    15    8    9 2
    16    8   10 am
    17   10   11 1
    18   10   39 1
    19   11   16 ar
    20   11   12 ar
    21   12   13 ar
    22   12   40 1
    23   13   14 ar
    24   13   41 1
    25   14   15 ar
    26   14   42 1
    27   15   16 ar
    28   15   17 1
    29   16   43 1
    30   17   18 am
    31   17   44 1
    32   18   19 2
    33   18   20 1
    34   20   25 ar
    35   20   21 ar
    36   21   22 ar
    37   21   45 1
    38   22   23 ar
    39   22   46 1
    40   23   24 ar
    41   23   47 1
    42   24   25 ar
    43   24   48 1
    44   25   26 1
    45   26   27 1
    46   27   28 1
    47   27   49 1
    48   27   50 1
    49   28   32 1
    50   28   29 2
    51   29   30 1
    52   29   51 1
    53   30   31 2
    54   30   52 1
    55   31   32 1
    56   31   53 1
@<TRIPOS>MOLECULE
ZINC33735578
   55    57     0     0     0
SMALL
USER_CHARGES
(2R,3R)-N-[5-(4-chlorophenyl)-1,3,4-thiadiazol-2-yl]-3-methyl-2-(p-tolylcarbamoylamino)pentanamide
@<TRIPOS>ATOM
      1 C1         -2.3966    3.2883    2.5015 C.3       1 <0>        -0.1919
      2 C2         -2.2961    2.9144    1.0213 C.3       1 <0>        -0.1193
      3 C3         -0.9062    2.3436    0.7327 C.3       1 <0>        -0.0969
      4 H1         -0.6927    1.5250    1.4358 H         1 <0>         0.0830
      5 C4         -0.8617    1.8095   -0.7003 C.3       1 <0>        -0.1400
      6 C5          0.1423    3.4454    0.8992 C.3       1 <0>         0.1599
      7 H2          1.1302    3.1062    0.5541 H         1 <0>         0.1314
      8 C6          0.2195    3.8505    2.3486 C.2       1 <0>         0.5224
      9 O1         -0.0321    4.9916    2.6736 O.2       1 <0>        -0.4636
     10 N1          0.5682    2.9448    3.2838 N.am      1 <0>        -0.6242
     11 C7          0.5391    3.2893    4.6296 C.2       1 <0>         0.2971
     12 N2          0.2107    4.4371    5.2089 N.2       1 <0>        -0.2775
     13 N3          0.2340    4.5822    6.4616 N.2       1 <0>        -0.2414
     14 C8          0.6003    3.5989    7.2746 C.2       1 <0>         0.0922
     15 S1          0.9414    2.3134    6.0758 S.3       1 <0>         0.0016
     16 C9          0.6984    3.5726    8.7494 C.ar      1 <0>        -0.0072
     17 C10         1.1069    2.4094    9.4037 C.ar      1 <0>        -0.0793
     18 C11         1.2013    2.3924   10.7798 C.ar      1 <0>        -0.1068
     19 C12         0.8820    3.5233   11.5124 C.ar      1 <0>        -0.0173
     20 C13         0.4712    4.6786   10.8691 C.ar      1 <0>        -0.1075
     21 C14         0.3776    4.7091    9.4933 C.ar      1 <0>        -0.0573
     22 Cl1         0.9969    3.4923   13.2443 Cl        1 <0>        -0.0574
     23 N4         -0.2350    4.6051    0.0874 N.am      1 <0>        -0.7349
     24 C15         0.3342    4.7970   -1.1191 C.2       1 <0>         0.7148
     25 O2          1.0882    3.9596   -1.5757 O.2       1 <0>        -0.5740
     26 N5          0.0674    5.9171   -1.8196 N.am      1 <0>        -0.6957
     27 C16         0.5754    6.0702   -3.1145 C.ar      1 <0>         0.1619
     28 C17         1.8212    5.5495   -3.4393 C.ar      1 <0>        -0.1179
     29 C18         2.3177    5.6982   -4.7195 C.ar      1 <0>        -0.1031
     30 C19         1.5803    6.3738   -5.6746 C.ar      1 <0>        -0.1035
     31 C20         0.3418    6.8980   -5.3528 C.ar      1 <0>        -0.1019
     32 C21        -0.1626    6.7481   -4.0759 C.ar      1 <0>        -0.1445
     33 C22         2.1274    6.5387   -7.0690 C.3       1 <0>        -0.1160
     34 H3         -3.3959    3.6987    2.7090 H         1 <0>         0.0586
     35 H4         -1.6332    4.0429    2.7417 H         1 <0>         0.0802
     36 H5         -2.2330    2.3921    3.1180 H         1 <0>         0.0497
     37 H6         -3.0595    2.1598    0.7811 H         1 <0>         0.0697
     38 H7         -2.4597    3.8106    0.4048 H         1 <0>         0.0682
     39 H8          0.1376    1.3991   -0.9078 H         1 <0>         0.0638
     40 H9         -1.0752    2.6280   -1.4035 H         1 <0>         0.0592
     41 H10        -1.6155    1.0174   -0.8199 H         1 <0>         0.0581
     42 H11         0.8758    1.9328    2.9817 H         1 <0>         0.4599
     43 H12         1.3518    1.5254    8.8336 H         1 <0>         0.1364
     44 H13         1.5212    1.4942   11.2870 H         1 <0>         0.1443
     45 H14         0.2231    5.5574   11.4458 H         1 <0>         0.1452
     46 H15         0.0563    5.6106    8.9926 H         1 <0>         0.1483
     47 H16        -0.9828    5.3192    0.4626 H         1 <0>         0.4285
     48 H17        -0.5497    6.7109   -1.3734 H         1 <0>         0.4306
     49 H18         2.3995    5.0256   -2.6927 H         1 <0>         0.1402
     50 H19         3.2846    5.2899   -4.9739 H         1 <0>         0.1233
     51 H20        -0.2315    7.4254   -6.1008 H         1 <0>         0.1245
     52 H21        -1.1301    7.1575   -3.8253 H         1 <0>         0.1239
     53 H22         1.4056    7.0981   -7.6823 H         1 <0>         0.0644
     54 H23         2.2978    5.5480   -7.5155 H         1 <0>         0.0686
     55 H24         3.0781    7.0904   -7.0270 H         1 <0>         0.0687
@<TRIPOS>BOND
     1    1    2 1
     2    1   34 1
     3    1   35 1
     4    1   36 1
     5    2    3 1
     6    2   37 1
     7    2   38 1
     8    3    4 1
     9    3    5 1
    10    3    6 1
    11    5   39 1
    12    5   40 1
    13    5   41 1
    14    6    7 1
    15    6    8 1
    16    6   23 1
    17    8    9 2
    18    8   10 am
    19   10   11 1
    20   10   42 1
    21   11   15 1
    22   11   12 2
    23   12   13 1
    24   13   14 2
    25   14   15 1
    26   14   16 1
    27   16   21 ar
    28   16   17 ar
    29   17   18 ar
    30   17   43 1
    31   18   19 ar
    32   18   44 1
    33   19   20 ar
    34   19   22 1
    35   20   21 ar
    36   20   45 1
    37   21   46 1
    38   23   24 am
    39   23   47 1
    40   24   25 2
    41   24   26 am
    42   26   27 1
    43   26   48 1
    44   27   32 ar
    45   27   28 ar
    46   28   29 ar
    47   28   49 1
    48   29   30 ar
    49   29   50 1
    50   30   31 ar
    51   30   33 1
    52   31   32 ar
    53   31   51 1
    54   32   52 1
    55   33   53 1
    56   33   54 1
    57   33   55 1
@<TRIPOS>MOLECULE
ZINC39940316
   56    61     0     0     0
SMALL
USER_CHARGES

@<TRIPOS>ATOM
      1 C1         -0.0164    1.3567    0.0095 C.ar      1 <0>        -0.1100
      2 C2          1.1686    2.0905    0.0021 C.ar      1 <0>        -0.1134
      3 C3          2.3785    1.4675   -0.0131 C.ar      1 <0>        -0.1035
      4 C4          2.4375    0.0634   -0.0211 C.ar      1 <0>        -0.0491
      5 C5          3.6681   -0.6153   -0.0364 C.ar      1 <0>        -0.0791
      6 C6          3.6865   -1.9761   -0.0434 C.ar      1 <0>        -0.1171
      7 C7          2.5015   -2.7098   -0.0357 C.ar      1 <0>        -0.0995
      8 C8          1.2917   -2.0868   -0.0209 C.ar      1 <0>        -0.0965
      9 C9          1.2327   -0.6827   -0.0133 C.ar      1 <0>        -0.0433
     10 C10         0.0021   -0.0041    0.0020 C.ar      1 <0>        -0.1082
     11 C11         5.0079   -2.7004   -0.0602 C.3       1 <0>         0.2006
     12 H1          5.7946   -2.0407   -0.4263 H         1 <0>         0.1051
     13 C12         5.3557   -3.2135    1.3579 C.3       1 <0>        -0.1117
     14 C13         4.9165   -4.6996    1.2557 C.3       1 <0>        -0.0070
     15 H2          3.8486   -4.8046    1.4470 H         1 <0>         0.1088
     16 N1          5.2362   -5.0140   -0.1605 N.3       1 <0>        -0.3957
     17 N2          4.9187   -3.9037   -0.9030 N.pl3     1 <0>        -0.4461
     18 C14         4.5625   -3.9133   -2.2564 C.2       1 <0>         0.1088
     19 C15         4.4526   -4.9539   -3.0875 C.2       1 <0>        -0.0283
     20 N3          4.0852   -4.7654   -4.4077 N.pl3     1 <0>        -0.3371
     21 C16         3.8278   -3.4629   -4.8000 C.2       1 <0>         0.3165
     22 S1          4.1310   -2.5389   -3.3118 S.3       1 <0>         0.1512
     23 N4          3.4487   -3.0126   -5.9499 N.2       1 <0>        -0.3340
     24 O1          3.1575   -3.9026   -7.0156 O.3       1 <0>        -0.1526
     25 C17         4.2137   -4.6700   -7.4008 C.2       1 <0>         0.0152
     26 C18         4.6314   -5.6506   -6.5850 C.2       1 <0>         0.1155
     27 N5          3.9737   -5.8281   -5.3482 N.pl3     1 <0>        -0.5603
     28 H3          3.4709   -6.6335   -5.1495 H         1 <0>         0.4327
     29 C19         5.7564   -6.5271   -6.9737 C.ar      1 <0>        -0.0333
     30 C20         6.1776   -7.5476   -6.1184 C.ar      1 <0>        -0.1082
     31 C21         7.2276   -8.3639   -6.4846 C.ar      1 <0>        -0.0985
     32 C22         7.8655   -8.1754   -7.6971 C.ar      1 <0>        -0.1396
     33 C23         7.4538   -7.1636   -8.5540 C.ar      1 <0>         0.1130
     34 C24         6.3975   -6.3416   -8.1988 C.ar      1 <0>        -0.1340
     35 O2          8.0847   -6.9827   -9.7440 O.3       1 <0>        -0.4970
     36 C25         5.7295   -5.5775    2.2092 C.3       1 <0>         0.4790
     37 F1          5.5357   -5.1414    3.5243 F         1 <0>        -0.1732
     38 F2          5.3093   -6.9067    2.0920 F         1 <0>        -0.1797
     39 F3          7.0870   -5.4871    1.8832 F         1 <0>        -0.1655
     40 H4         -0.9633    1.8757    0.0259 H         1 <0>         0.1248
     41 H5          1.1260    3.1696    0.0083 H         1 <0>         0.1253
     42 H6          3.2884    2.0491   -0.0194 H         1 <0>         0.1293
     43 H7          4.5943   -0.0599   -0.0428 H         1 <0>         0.1322
     44 H8          2.5441   -3.7890   -0.0419 H         1 <0>         0.1110
     45 H9          0.3816   -2.6684   -0.0154 H         1 <0>         0.1275
     46 H10        -0.9241   -0.5595    0.0082 H         1 <0>         0.1275
     47 H11         6.4252   -3.1332    1.5526 H         1 <0>         0.1082
     48 H12         4.7798   -2.6858    2.1181 H         1 <0>         0.1101
     49 H13         4.7196   -5.8208   -0.4773 H         1 <0>         0.3414
     50 H14         4.6529   -5.9514   -2.7252 H         1 <0>         0.1657
     51 H15         4.7067   -4.4928   -8.3452 H         1 <0>         0.1565
     52 H16         5.6818   -7.6973   -5.1706 H         1 <0>         0.1247
     53 H17         7.5527   -9.1526   -5.8222 H         1 <0>         0.1312
     54 H18         8.6872   -8.8174   -7.9783 H         1 <0>         0.1320
     55 H19         6.0737   -5.5567   -8.8663 H         1 <0>         0.1337
     56 H20         7.7002   -7.4874  -10.4737 H         1 <0>         0.3938
@<TRIPOS>BOND
     1    1   10 ar
     2    1    2 ar
     3    1   40 1
     4    2    3 ar
     5    2   41 1
     6    3    4 ar
     7    3   42 1
     8    4    9 ar
     9    4    5 ar
    10    5    6 ar
    11    5   43 1
    12    6    7 ar
    13    6   11 1
    14    7    8 ar
    15    7   44 1
    16    8    9 ar
    17    8   45 1
    18    9   10 ar
    19   10   46 1
    20   11   12 1
    21   11   17 1
    22   11   13 1
    23   13   14 1
    24   13   47 1
    25   13   48 1
    26   14   15 1
    27   14   16 1
    28   14   36 1
    29   16   17 1
    30   16   49 1
    31   17   18 1
    32   18   22 1
    33   18   19 2
    34   19   20 1
    35   19   50 1
    36   20   27 1
    37   20   21 1
    38   21   22 1
    39   21   23 2
    40   23   24 1
    41   24   25 1
    42   25   26 2
    43   25   51 1
    44   26   27 1
    45   26   29 1
    46   27   28 1
    47   29   34 ar
    48   29   30 ar
    49   30   31 ar
    50   30   52 1
    51   31   32 ar
    52   31   53 1
    53   32   33 ar
    54   32   54 1
    55   33   34 ar
    56   33   35 1
    57   34   55 1
    58   35   56 1
    59   36   37 1
    60   36   38 1
    61   36   39 1
@<TRIPOS>MOLECULE
ZINC59310652
   64    68     0     0     0
SMALL
USER_CHARGES

@<TRIPOS>ATOM
      1 C1          0.0251    1.5032    0.0055 C.3       1 <0>        -0.1147
      2 C2          0.0340   -0.0037   -0.0015 C.ar      1 <0>        -0.0930
      3 C3          0.6317   -0.6854   -1.0460 C.ar      1 <0>        -0.1080
      4 C4          0.6415   -2.0662   -1.0554 C.ar      1 <0>        -0.1103
      5 C5          0.0507   -2.7705   -0.0142 C.ar      1 <0>         0.1333
      6 C6         -0.5482   -2.0832    1.0331 C.ar      1 <0>        -0.1042
      7 C7         -0.5504   -0.7019    1.0390 C.ar      1 <0>        -0.1051
      8 C8         -1.1904   -2.8434    2.1648 C.3       1 <0>        -0.1165
      9 N1          0.0586   -4.1697   -0.0209 N.am      1 <0>        -0.6644
     10 C9         -0.0404   -4.8386   -1.1868 C.2       1 <0>         0.5363
     11 O1         -0.0541   -4.2300   -2.2358 O.2       1 <0>        -0.4987
     12 C10        -0.1340   -6.3427   -1.1871 C.3       1 <0>        -0.1638
     13 S1         -0.2552   -6.9407   -2.8954 S.3       1 <0>         0.1165
     14 C11        -0.3560   -8.6918   -2.7278 C.2       1 <0>         0.2157
     15 N2         -0.4545   -9.5646   -3.7365 N.2       1 <0>        -0.5182
     16 C12        -0.5082  -10.7898   -3.2582 C.2       1 <0>         0.5636
     17 N3         -0.4435  -10.7149   -1.9119 N.pl3     1 <0>        -0.5065
     18 N4         -0.3407   -9.3511   -1.5939 N.2       1 <0>        -0.3259
     19 N5         -0.6133  -11.9502   -4.0040 N.pl3     1 <0>        -0.5567
     20 N6         -0.6718  -11.8813   -5.4021 N.2       1 <0>        -0.2016
     21 C13        -0.7691  -12.9551   -6.0923 C.2       1 <0>         0.1023
     22 C14        -0.8206  -14.2932   -5.4010 C.3       1 <0>        -0.1604
     23 C15        -0.8320  -12.8810   -7.5962 C.3       1 <0>         0.0125
     24 C16        -2.1448  -13.4981   -8.0827 C.3       1 <0>        -0.0982
     25 C17        -2.2087  -13.4229   -9.6095 C.3       1 <0>        -0.0840
     26 C18        -2.1383  -11.9598  -10.0515 C.3       1 <0>        -0.1104
     27 C19        -0.8255  -11.3428   -9.5650 C.3       1 <0>        -0.0879
     28 C20        -0.7616  -11.4180   -8.0382 C.3       1 <0>        -0.0939
     29 C21         0.3529  -12.1136  -10.1633 C.3       1 <0>        -0.1104
     30 C22         0.2825  -13.5767   -9.7214 C.3       1 <0>        -0.0838
     31 C23        -1.0303  -14.1937  -10.2079 C.3       1 <0>        -0.1097
     32 C24         0.3464  -13.6519   -8.1946 C.3       1 <0>        -0.0991
     33 H1          0.9181    1.8695    0.5119 H         1 <0>         0.0705
     34 H2          0.0124    1.8713   -1.0204 H         1 <0>         0.0671
     35 H3         -0.8618    1.8589    0.5300 H         1 <0>         0.0659
     36 H4          1.0909   -0.1372   -1.8553 H         1 <0>         0.1262
     37 H5          1.1078   -2.5980   -1.8716 H         1 <0>         0.1411
     38 H6         -1.0125   -0.1666    1.8554 H         1 <0>         0.1259
     39 H7         -0.4523   -3.0237    2.9464 H         1 <0>         0.0719
     40 H8         -2.0158   -2.2596    2.5723 H         1 <0>         0.0724
     41 H9         -1.5676   -3.7965    1.7943 H         1 <0>         0.0636
     42 H10         0.1353   -4.6583    0.8135 H         1 <0>         0.4128
     43 H11         0.7558   -6.7622   -0.7176 H         1 <0>         0.1254
     44 H12        -1.0186   -6.6518   -0.6303 H         1 <0>         0.1254
     45 H13        -0.6465  -12.8114   -3.5591 H         1 <0>         0.3976
     46 H14        -1.8577  -14.5525   -5.1883 H         1 <0>         0.0857
     47 H15        -0.3812  -15.0531   -6.0471 H         1 <0>         0.0903
     48 H16        -0.2602  -14.2417   -4.4675 H         1 <0>         0.0629
     49 H17        -2.1950  -14.5404   -7.7678 H         1 <0>         0.0663
     50 H18        -2.9844  -12.9489   -7.6564 H         1 <0>         0.0658
     51 H19        -3.1440  -13.8625   -9.9561 H         1 <0>         0.0729
     52 H20        -2.1838  -11.9063  -11.1392 H         1 <0>         0.0629
     53 H21        -2.9778  -11.4107   -9.6252 H         1 <0>         0.0629
     54 H22        -0.7753  -10.3004   -9.8799 H         1 <0>         0.0733
     55 H23        -1.6011  -10.8688   -7.6119 H         1 <0>         0.0704
     56 H24         0.1737  -10.9783   -7.6916 H         1 <0>         0.0703
     57 H25         0.3074  -12.0600  -11.2511 H         1 <0>         0.0629
     58 H26         1.2882  -11.6740   -9.8168 H         1 <0>         0.0629
     59 H27         1.1220  -14.1258  -10.1476 H         1 <0>         0.0730
     60 H28        -1.0805  -15.2361   -9.8930 H         1 <0>         0.0623
     61 H29        -1.0758  -14.1402  -11.2956 H         1 <0>         0.0642
     62 H30         1.2817  -13.2123   -7.8480 H         1 <0>         0.0662
     63 H31         0.2962  -14.6942   -7.8797 H         1 <0>         0.0665
     64 H32        -0.4613  -11.4571   -1.2876 H         1 <0>         0.4376
@<TRIPOS>BOND
     1    1    2 1
     2    1   33 1
     3    1   34 1
     4    1   35 1
     5    2    7 ar
     6    2    3 ar
     7    3    4 ar
     8    3   36 1
     9    4    5 ar
    10    4   37 1
    11    5    6 ar
    12    5    9 1
    13    6    7 ar
    14    6    8 1
    15    7   38 1
    16    8   39 1
    17    8   40 1
    18    8   41 1
    19    9   10 am
    20    9   42 1
    21   10   11 2
    22   10   12 1
    23   12   13 1
    24   12   43 1
    25   12   44 1
    26   13   14 1
    27   14   18 2
    28   14   15 1
    29   15   16 2
    30   16   17 1
    31   16   19 1
    32   17   18 1
    33   17   64 1
    34   19   20 1
    35   19   45 1
    36   20   21 2
    37   21   22 1
    38   21   23 1
    39   22   46 1
    40   22   47 1
    41   22   48 1
    42   23   28 1
    43   23   32 1
    44   23   24 1
    45   24   25 1
    46   24   49 1
    47   24   50 1
    48   25   31 1
    49   25   26 1
    50   25   51 1
    51   26   27 1
    52   26   52 1
    53   26   53 1
    54   27   28 1
    55   27   29 1
    56   27   54 1
    57   28   55 1
    58   28   56 1
    59   29   30 1
    60   29   57 1
    61   29   58 1
    62   30   31 1
    63   30   32 1
    64   30   59 1
    65   31   60 1
    66   31   61 1
    67   32   62 1
    68   32   63 1
@<TRIPOS>MOLECULE
ZINC13750556
   68    71     0     0     0
SMALL
USER_CHARGES
(2R,3R,4S,6R)-2,6-bis(4-methoxyphenyl)-4-(2-phenylethynyl)-3-propyl-piperidin-4-ol
@<TRIPOS>ATOM
      1 C1          2.0350    5.7506   -4.4954 C.3       1 <0>        -0.1550
      2 C2          0.9438    6.3459   -3.6033 C.3       1 <0>        -0.1425
      3 C3          0.9495    5.6360   -2.2479 C.3       1 <0>        -0.1247
      4 C4         -0.0391    6.3267   -1.3063 C.3       1 <0>        -0.0830
      5 H1          0.0200    7.4064   -1.4440 H         1 <0>         0.1101
      6 C5          0.3062    5.9768    0.1430 C.3       1 <0>         0.0949
      7 H2          1.3121    6.3287    0.3718 H         1 <0>         0.1515
      8 C6         -2.0211    6.1435    0.7976 C.3       1 <0>         0.0702
      9 H3         -2.0559    5.0619    0.9278 H         1 <0>         0.1718
     10 C7         -2.4355    6.4984   -0.6322 C.3       1 <0>        -0.1537
     11 C8         -1.4599    5.8486   -1.6173 C.3       1 <0>         0.2651
     12 C9         -1.8189    6.2343   -2.9918 C.1       1 <0>        -0.2214
     13 C10        -2.1052    6.5419   -4.0880 C.1       1 <0>        -0.0580
     14 C11        -2.4545    6.9170   -5.4252 C.ar      1 <0>        -0.0150
     15 C12        -3.5490    7.7513   -5.6555 C.ar      1 <0>        -0.0885
     16 C13        -3.8776    8.1125   -6.9460 C.ar      1 <0>        -0.1176
     17 C14        -3.1304    7.6417   -8.0108 C.ar      1 <0>        -0.0972
     18 C15        -2.0473    6.8101   -7.7895 C.ar      1 <0>        -0.1182
     19 C16        -1.7052    6.4452   -6.5036 C.ar      1 <0>        -0.0890
     20 O1         -1.5259    4.4271   -1.4875 O.3       1 <0>        -0.5242
     21 C17        -2.9672    6.7972    1.7715 C.ar      1 <0>        -0.1862
     22 C18        -2.8076    8.1310    2.0992 C.ar      1 <0>        -0.0768
     23 C19        -3.6770    8.7340    2.9874 C.ar      1 <0>        -0.1983
     24 C20        -4.7043    7.9974    3.5590 C.ar      1 <0>         0.1610
     25 C21        -4.8588    6.6579    3.2329 C.ar      1 <0>        -0.1414
     26 C22        -3.9899    6.0608    2.3402 C.ar      1 <0>        -0.0453
     27 O2         -5.5575    8.5870    4.4373 O.3       1 <0>        -0.3070
     28 C23        -5.3383    9.9692    4.7262 C.3       1 <0>         0.0213
     29 C24         0.2429    4.4825    0.3275 C.ar      1 <0>        -0.1382
     30 C25         0.9674    3.6526   -0.5080 C.ar      1 <0>        -0.0528
     31 C26         0.9114    2.2825   -0.3406 C.ar      1 <0>        -0.1352
     32 C27         0.1274    1.7394    0.6668 C.ar      1 <0>         0.1511
     33 C28        -0.6028    2.5740    1.5005 C.ar      1 <0>        -0.1951
     34 C29        -0.5393    3.9437    1.3323 C.ar      1 <0>        -0.1030
     35 O3          0.0703    0.3918    0.8332 O.3       1 <0>        -0.3109
     36 C30        -0.7574   -0.0968    1.8907 C.3       1 <0>         0.0237
     37 H4          1.8450    4.6873   -4.6414 H         1 <0>         0.0564
     38 H5          2.0309    6.2563   -5.4610 H         1 <0>         0.0585
     39 H6          3.0064    5.8841   -4.0194 H         1 <0>         0.0552
     40 H7         -0.0277    6.2124   -4.0793 H         1 <0>         0.0826
     41 H8          1.1338    7.4092   -3.4573 H         1 <0>         0.0591
     42 H9          1.9507    5.6796   -1.8192 H         1 <0>         0.0784
     43 H10         0.6566    4.5947   -2.3820 H         1 <0>         0.1055
     44 H11        -3.4435    6.1290   -0.8212 H         1 <0>         0.1182
     45 H12        -2.4142    7.5807   -0.7593 H         1 <0>         0.0997
     46 H13        -4.1354    8.1164   -4.8253 H         1 <0>         0.1266
     47 H14        -4.7221    8.7615   -7.1254 H         1 <0>         0.1326
     48 H15        -3.3941    7.9244   -9.0193 H         1 <0>         0.1314
     49 H16        -1.4679    6.4459   -8.6251 H         1 <0>         0.1323
     50 H17        -0.8596    5.7956   -6.3322 H         1 <0>         0.1258
     51 H18        -2.4008    4.0560   -1.6665 H         1 <0>         0.3865
     52 H19        -2.0050    8.7029    1.6573 H         1 <0>         0.1217
     53 H20        -3.5548    9.7771    3.2394 H         1 <0>         0.1409
     54 H21        -5.6575    6.0822    3.6769 H         1 <0>         0.1451
     55 H22        -4.1098    5.0180    2.0860 H         1 <0>         0.1398
     56 H23        -6.0870   10.3145    5.4392 H         1 <0>         0.1112
     57 H24        -4.3436   10.0979    5.1530 H         1 <0>         0.0616
     58 H25        -5.4172   10.5495    3.8069 H         1 <0>         0.0619
     59 H26         1.5779    4.0759   -1.2919 H         1 <0>         0.1562
     60 H27         1.4773    1.6347   -0.9937 H         1 <0>         0.1385
     61 H28        -1.2174    2.1534    2.2827 H         1 <0>         0.1345
     62 H29        -1.1043    4.5940    1.9836 H         1 <0>         0.1200
     63 H30        -0.4041    0.3011    2.8420 H         1 <0>         0.0592
     64 H31        -1.7864    0.2215    1.7234 H         1 <0>         0.0588
     65 H32        -0.7130   -1.1857    1.9133 H         1 <0>         0.1077
     66 N1         -0.6523    6.6307    1.0542 N.4       1 <0>        -0.5135
     67 H33        -0.6214    7.6462    0.9056 H         1 <0>         0.4290
     68 H34        -0.3944    6.4189    2.0252 H         1 <0>         0.4358
@<TRIPOS>BOND
     1    1    2 1
     2    1   37 1
     3    1   38 1
     4    1   39 1
     5    2    3 1
     6    2   40 1
     7    2   41 1
     8    3    4 1
     9    3   42 1
    10    3   43 1
    11    4    5 1
    12    4   11 1
    13    4    6 1
    14    6    7 1
    15    6   29 1
    16    6   66 1
    17    8    9 1
    18    8   10 1
    19    8   21 1
    20    8   66 1
    21   10   11 1
    22   10   44 1
    23   10   45 1
    24   11   12 1
    25   11   20 1
    26   12   13 3
    27   13   14 1
    28   14   19 ar
    29   14   15 ar
    30   15   16 ar
    31   15   46 1
    32   16   17 ar
    33   16   47 1
    34   17   18 ar
    35   17   48 1
    36   18   19 ar
    37   18   49 1
    38   19   50 1
    39   20   51 1
    40   21   26 ar
    41   21   22 ar
    42   22   23 ar
    43   22   52 1
    44   23   24 ar
    45   23   53 1
    46   24   25 ar
    47   24   27 1
    48   25   26 ar
    49   25   54 1
    50   26   55 1
    51   27   28 1
    52   28   56 1
    53   28   57 1
    54   28   58 1
    55   29   34 ar
    56   29   30 ar
    57   30   31 ar
    58   30   59 1
    59   31   32 ar
    60   31   60 1
    61   32   33 ar
    62   32   35 1
    63   33   34 ar
    64   33   61 1
    65   34   62 1
    66   35   36 1
    67   36   63 1
    68   36   64 1
    69   36   65 1
    70   66   67 1
    71   66   68 1
@<TRIPOS>MOLECULE
ZINC21262168
   75    77     0     0     0
SMALL
USER_CHARGES
3-cyclooctyl-1-[(4-methoxyphenyl)methyl]-1-(2,2,6,6-tetramethyl-4-piperidyl)thiourea
@<TRIPOS>ATOM
      1 C1         -0.9682    0.9850   -2.2610 C.3       1 <0>        -0.1768
      2 C2         -1.0540    1.5529   -0.8392 C.3       1 <0>         0.0705
      3 C3         -1.0336    3.0783   -0.8971 C.3       1 <0>        -0.1661
      4 C4          0.3798    3.5814   -1.1892 C.3       1 <0>         0.1198
      5 C5          1.3065    3.1024   -0.0722 C.3       1 <0>        -0.1586
      6 C6          1.3155    1.5771   -0.0073 C.3       1 <0>         0.0535
      7 N1         -0.0144    1.0046    0.0065 N.4       1 <0>        -0.5165
      8 C7          2.0291    1.1713    1.3015 C.3       1 <0>        -0.1819
      9 C8          2.1468    1.0195   -1.1689 C.3       1 <0>        -0.1773
     10 N2          0.3744    5.0495   -1.2169 N.pl3     1 <0>        -0.5650
     11 C9          0.9134    5.7622   -2.3778 C.3       1 <0>         0.1587
     12 C10        -0.1866    5.9905   -3.3823 C.ar      1 <0>        -0.1590
     13 C11        -0.4272    5.0510   -4.3678 C.ar      1 <0>        -0.0696
     14 C12        -1.4387    5.2553   -5.2863 C.ar      1 <0>        -0.2202
     15 C13        -2.2063    6.4093   -5.2258 C.ar      1 <0>         0.1425
     16 C14        -1.9592    7.3531   -4.2395 C.ar      1 <0>        -0.1564
     17 C15        -0.9499    7.1417   -3.3202 C.ar      1 <0>        -0.0425
     18 O1         -3.1982    6.6152   -6.1316 O.3       1 <0>        -0.3142
     19 C16        -3.3960    5.6012   -7.1189 C.3       1 <0>         0.0234
     20 C17        -0.1263    5.7413   -0.1742 C.2       1 <0>         0.5540
     21 S1         -0.2502    7.4467   -0.2588 S.2       1 <0>        -0.5960
     22 N3         -0.5296    5.0905    0.9350 N.pl3     1 <0>        -0.6999
     23 C18        -1.1763    5.8285    2.0229 C.3       1 <0>         0.1172
     24 C19        -0.1071    6.4262    2.9398 C.3       1 <0>        -0.1228
     25 C20        -0.7379    7.5042    3.8232 C.3       1 <0>        -0.1209
     26 C21        -1.6593    8.3841    2.9764 C.3       1 <0>        -0.1445
     27 C22        -3.1104    8.1712    3.4126 C.3       1 <0>        -0.1229
     28 C23        -3.6159    6.8352    2.8643 C.3       1 <0>        -0.1304
     29 C24        -3.0301    5.6896    3.6918 C.3       1 <0>        -0.1263
     30 C25        -2.0642    4.8769    2.8274 C.3       1 <0>        -0.1235
     31 C26        -2.4216    1.1278   -0.2593 C.3       1 <0>        -0.1793
     32 H1         -1.7687    1.4191   -2.8781 H         1 <0>         0.1059
     33 H2         -1.0837   -0.1084   -2.2267 H         1 <0>         0.0868
     34 H3          0.0093    1.2369   -2.6981 H         1 <0>         0.0808
     35 H4         -1.7087    3.4240   -1.6938 H         1 <0>         0.1239
     36 H5         -1.3667    3.4864    0.0686 H         1 <0>         0.1025
     37 H6          0.7302    3.2354   -2.1728 H         1 <0>         0.1215
     38 H7          2.3289    3.4592   -0.2657 H         1 <0>         0.1242
     39 H8          0.9555    3.5003    0.8914 H         1 <0>         0.0936
     40 H9         -0.3217    1.0787    1.0601 H         1 <0>         0.4425
     41 H10         2.0536    0.0744    1.3809 H         1 <0>         0.0891
     42 H11         1.4842    1.5891    2.1609 H         1 <0>         0.0823
     43 H12         3.0575    1.5615    1.2945 H         1 <0>         0.1100
     44 H13         2.1526   -0.0795   -1.1212 H         1 <0>         0.0868
     45 H14         3.1780    1.3952   -1.0952 H         1 <0>         0.1069
     46 H15         1.7061    1.3428   -2.1235 H         1 <0>         0.0812
     47 H16         1.3227    6.7311   -2.0556 H         1 <0>         0.1236
     48 H17         1.7118    5.1619   -2.8384 H         1 <0>         0.0899
     49 H18         0.1735    4.1548   -4.4171 H         1 <0>         0.1136
     50 H19        -1.6293    4.5189   -6.0530 H         1 <0>         0.1266
     51 H20        -2.5556    8.2521   -4.1901 H         1 <0>         0.1328
     52 H21        -0.7572    7.8761   -2.5521 H         1 <0>         0.1604
     53 H22        -4.2232    5.8924   -7.7829 H         1 <0>         0.1059
     54 H23        -3.6408    4.6500   -6.6236 H         1 <0>         0.0544
     55 H24        -2.4762    5.4807   -7.7101 H         1 <0>         0.0583
     56 H25        -0.3732    4.0053    1.0235 H         1 <0>         0.3956
     57 H26        -1.7796    6.6241    1.5613 H         1 <0>         0.1433
     58 H27         0.3166    5.6337    3.5742 H         1 <0>         0.0548
     59 H28         0.6913    6.8732    2.3293 H         1 <0>         0.0786
     60 H29        -1.3216    7.0267    4.6240 H         1 <0>         0.0709
     61 H30         0.0546    8.1245    4.2672 H         1 <0>         0.0638
     62 H31        -1.3861    9.4406    3.1146 H         1 <0>         0.0607
     63 H32        -1.5518    8.1134    1.9157 H         1 <0>         0.0996
     64 H33        -3.1654    8.1615    4.5112 H         1 <0>         0.0636
     65 H34        -3.7345    8.9882    3.0215 H         1 <0>         0.0632
     66 H35        -4.7139    6.8063    2.9239 H         1 <0>         0.0628
     67 H36        -3.3027    6.7272    1.8154 H         1 <0>         0.0686
     68 H37        -2.4897    6.1013    4.5570 H         1 <0>         0.0833
     69 H38        -3.8436    5.0381    4.0437 H         1 <0>         0.0670
     70 H39        -2.6368    4.2389    2.1381 H         1 <0>         0.0597
     71 H40        -1.4353    4.2467    3.4734 H         1 <0>         0.0653
     72 H41        -2.5228    1.5173    0.7644 H         1 <0>         0.0805
     73 H42        -2.4873    0.0299   -0.2421 H         1 <0>         0.0879
     74 H43        -3.2283    1.5336   -0.8874 H         1 <0>         0.1076
     75 H44         0.1511   -0.0513   -0.2537 H         1 <0>         0.4506
@<TRIPOS>BOND
     1    1    2 1
     2    1   32 1
     3    1   33 1
     4    1   34 1
     5    2    7 1
     6    2    3 1
     7    2   31 1
     8    3    4 1
     9    3   35 1
    10    3   36 1
    11    4    5 1
    12    4   10 1
    13    4   37 1
    14    5    6 1
    15    5   38 1
    16    5   39 1
    17    6    7 1
    18    6    8 1
    19    6    9 1
    20    7   40 1
    21    7   75 1
    22    8   41 1
    23    8   42 1
    24    8   43 1
    25    9   44 1
    26    9   45 1
    27    9   46 1
    28   10   11 1
    29   10   20 1
    30   11   12 1
    31   11   47 1
    32   11   48 1
    33   12   17 ar
    34   12   13 ar
    35   13   14 ar
    36   13   49 1
    37   14   15 ar
    38   14   50 1
    39   15   16 ar
    40   15   18 1
    41   16   17 ar
    42   16   51 1
    43   17   52 1
    44   18   19 1
    45   19   53 1
    46   19   54 1
    47   19   55 1
    48   20   21 2
    49   20   22 1
    50   22   23 1
    51   22   56 1
    52   23   30 1
    53   23   24 1
    54   23   57 1
    55   24   25 1
    56   24   58 1
    57   24   59 1
    58   25   26 1
    59   25   60 1
    60   25   61 1
    61   26   27 1
    62   26   62 1
    63   26   63 1
    64   27   28 1
    65   27   64 1
    66   27   65 1
    67   28   29 1
    68   28   66 1
    69   28   67 1
    70   29   30 1
    71   29   68 1
    72   29   69 1
    73   30   70 1
    74   30   71 1
    75   31   72 1
    76   31   73 1
    77   31   74 1
@<TRIPOS>MOLECULE
ZINC08385057
   77    81     0     0     0
SMALL
USER_CHARGES

@<TRIPOS>ATOM
      1 C1          0.1163    0.8883    4.9839 C.3       1 <0>        -0.1511
      2 C2          0.2501   -0.6364    4.8298 C.3       1 <0>        -0.0506
      3 C3         -0.7238   -1.0647    3.7578 C.3       1 <0>        -0.0876
      4 C4         -0.3635   -2.3653    3.0734 C.2       1 <0>        -0.0271
      5 C5          0.7815   -2.9749    3.2298 C.2       1 <0>        -0.1443
      6 C6          1.1080   -4.2567    2.5062 C.3       1 <0>         0.1802
      7 H1          1.1478   -5.0762    3.2266 H         1 <0>         0.0990
      8 C7          0.1138   -4.6077    1.4064 C.3       1 <0>        -0.1384
      9 C8         -1.3196   -4.3781    1.8766 C.3       1 <0>        -0.0517
     10 C9         -1.4807   -2.9035    2.2046 C.3       1 <0>        -0.0962
     11 C10        -2.2876   -4.7423    0.7371 C.3       1 <0>        -0.1474
     12 C11        -1.6440   -5.2472    3.0911 C.3       1 <0>        -0.1598
     13 N1          2.4152   -4.1769    1.8365 N.pl3     1 <0>        -0.6220
     14 C12         3.0877   -5.2653    1.5881 C.cat     1 <0>         0.7269
     15 N2          4.3502   -5.1856    1.0449 N.pl3     1 <0>        -0.6377
     16 C13         4.8755   -3.9430    0.6756 C.ar      1 <0>         0.1092
     17 C14         4.0866   -3.0310   -0.0135 C.ar      1 <0>        -0.1551
     18 C15         4.6081   -1.8047   -0.3763 C.ar      1 <0>        -0.0826
     19 C16         5.9142   -1.4844   -0.0540 C.ar      1 <0>        -0.1043
     20 C17         6.7024   -2.3904    0.6317 C.ar      1 <0>        -0.0844
     21 C18         6.1852   -3.6161    1.0024 C.ar      1 <0>        -0.1106
     22 N3          2.5355   -6.4948    1.8689 N.pl3     1 <0>        -0.6418
     23 C19         3.3059   -7.6545    1.7348 C.ar      1 <0>         0.0968
     24 C20         4.5846   -7.7068    2.2743 C.ar      1 <0>        -0.1491
     25 C21         5.3425   -8.8536    2.1406 C.ar      1 <0>        -0.0878
     26 C22         4.8295   -9.9490    1.4703 C.ar      1 <0>        -0.1018
     27 C23         3.5569   -9.9000    0.9316 C.ar      1 <0>        -0.0877
     28 C24         2.7916   -8.7582    1.0668 C.ar      1 <0>        -0.1111
     29 C25         1.8087   -2.4352    4.2028 C.3       1 <0>         0.1853
     30 C26         1.6740   -0.9202    4.3615 C.3       1 <0>        -0.1299
     31 C27         1.6315   -3.1118    5.5585 C.3       1 <0>        -0.1234
     32 C28         0.3945   -2.7050    6.3327 C.3       1 <0>        -0.0487
     33 C29        -0.0188   -1.2544    6.1821 C.3       1 <0>        -0.0998
     34 C30        -0.7862   -3.6214    5.9803 C.3       1 <0>        -0.1564
     35 C31         0.6944   -2.9392    7.8363 C.3       1 <0>        -0.1508
     36 O1          3.1551   -2.6754    3.7606 O.3       1 <0>        -0.5776
     37 H2          0.3069    1.3686    4.0241 H         1 <0>         0.0584
     38 H3         -0.8919    1.1326    5.3186 H         1 <0>         0.0607
     39 H4          0.8391    1.2441    5.7181 H         1 <0>         0.0598
     40 H5         -1.7161   -1.1635    4.1988 H         1 <0>         0.0855
     41 H6         -0.7687   -0.2796    2.9975 H         1 <0>         0.0879
     42 H7          0.3186   -3.9878    0.5266 H         1 <0>         0.0863
     43 H8          0.2472   -5.6582    1.1247 H         1 <0>         0.0735
     44 H9         -2.4318   -2.7584    2.7244 H         1 <0>         0.0896
     45 H10        -1.5109   -2.3328    1.2734 H         1 <0>         0.0892
     46 H11        -2.1535   -5.7899    0.4674 H         1 <0>         0.0610
     47 H12        -3.3139   -4.5805    1.0666 H         1 <0>         0.0677
     48 H13        -2.0810   -4.1146   -0.1297 H         1 <0>         0.0599
     49 H14        -0.9648   -4.9996    3.9069 H         1 <0>         0.0647
     50 H15        -2.6715   -5.0635    3.4052 H         1 <0>         0.0702
     51 H16        -1.5271   -6.2983    2.8273 H         1 <0>         0.0605
     52 H17         4.8755   -5.9912    0.9183 H         1 <0>         0.4392
     53 H18         3.0666   -3.2806   -0.2658 H         1 <0>         0.1268
     54 H19         3.9953   -1.0952   -0.9125 H         1 <0>         0.1390
     55 H20         6.3197   -0.5248   -0.3388 H         1 <0>         0.1384
     56 H21         7.7222   -2.1374    0.8815 H         1 <0>         0.1412
     57 H22         6.7998   -4.3214    1.5421 H         1 <0>         0.1363
     58 H23         1.6123   -6.5568    2.1598 H         1 <0>         0.4375
     59 H24         4.9860   -6.8516    2.7976 H         1 <0>         0.1316
     60 H25         6.3371   -8.8948    2.5596 H         1 <0>         0.1409
     61 H26         5.4242  -10.8446    1.3671 H         1 <0>         0.1396
     62 H27         3.1592  -10.7570    0.4084 H         1 <0>         0.1421
     63 H28         1.7959   -8.7223    0.6500 H         1 <0>         0.1370
     64 H29         1.8558   -0.4339    3.4027 H         1 <0>         0.0760
     65 H30         2.3907   -0.5626    5.0994 H         1 <0>         0.0759
     66 H31         1.6174   -4.2049    5.4063 H         1 <0>         0.0608
     67 H32         2.5243   -2.9048    6.1736 H         1 <0>         0.0674
     68 H33         0.4958   -0.6585    6.9490 H         1 <0>         0.0675
     69 H34        -1.0958   -1.1725    6.3940 H         1 <0>         0.0685
     70 H35        -0.5342   -4.6516    6.2317 H         1 <0>         0.0520
     71 H36        -1.6659   -3.3142    6.5459 H         1 <0>         0.0586
     72 H37        -0.9967   -3.5488    4.9133 H         1 <0>         0.0673
     73 H38         1.5495   -2.3329    8.1350 H         1 <0>         0.0547
     74 H39        -0.1759   -2.6568    8.4286 H         1 <0>         0.0597
     75 H40         0.9203   -3.9926    8.0019 H         1 <0>         0.0543
     76 H41         3.8328   -2.3407    4.3638 H         1 <0>         0.3886
     77 H42         2.7767   -3.3142    1.5797 H         1 <0>         0.4439
@<TRIPOS>BOND
     1    1    2 1
     2    1   37 1
     3    1   38 1
     4    1   39 1
     5    2   30 1
     6    2   33 1
     7    2    3 1
     8    3    4 1
     9    3   40 1
    10    3   41 1
    11    4   10 1
    12    4    5 2
    13    5    6 1
    14    5   29 1
    15    6    7 1
    16    6    8 1
    17    6   13 1
    18    8    9 1
    19    8   42 1
    20    8   43 1
    21    9   10 1
    22    9   11 1
    23    9   12 1
    24   10   44 1
    25   10   45 1
    26   11   46 1
    27   11   47 1
    28   11   48 1
    29   12   49 1
    30   12   50 1
    31   12   51 1
    32   13   14 2
    33   13   77 1
    34   14   15 1
    35   14   22 1
    36   15   16 1
    37   15   52 1
    38   16   21 ar
    39   16   17 ar
    40   17   18 ar
    41   17   53 1
    42   18   19 ar
    43   18   54 1
    44   19   20 ar
    45   19   55 1
    46   20   21 ar
    47   20   56 1
    48   21   57 1
    49   22   23 1
    50   22   58 1
    51   23   28 ar
    52   23   24 ar
    53   24   25 ar
    54   24   59 1
    55   25   26 ar
    56   25   60 1
    57   26   27 ar
    58   26   61 1
    59   27   28 ar
    60   27   62 1
    61   28   63 1
    62   29   30 1
    63   29   31 1
    64   29   36 1
    65   30   64 1
    66   30   65 1
    67   31   32 1
    68   31   66 1
    69   31   67 1
    70   32   33 1
    71   32   34 1
    72   32   35 1
    73   33   68 1
    74   33   69 1
    75   34   70 1
    76   34   71 1
    77   34   72 1
    78   35   73 1
    79   35   74 1
    80   35   75 1
    81   36   76 1
@<TRIPOS>MOLECULE
ZINC59088454
   63    65     0     0     0
SMALL
USER_CHARGES

@<TRIPOS>ATOM
      1 C1          0.6566    2.3665   -0.1335 C.3       1 <0>        -0.1762
      2 C2          0.3036    0.8804   -0.0120 C.3       1 <0>         0.0691
      3 C3          0.7243    0.1451   -1.2803 C.3       1 <0>        -0.1800
      4 C4          2.2427   -0.0297   -1.3155 C.3       1 <0>         0.1430
      5 C5          2.6580   -0.8388   -0.0866 C.3       1 <0>        -0.1754
      6 C6          2.2514   -0.1115    1.1908 C.3       1 <0>         0.0693
      7 N1          0.8595    0.3028    1.1989 N.4       1 <0>        -0.4883
      8 C7          2.4563   -1.0946    2.3667 C.3       1 <0>        -0.1780
      9 C8          3.1880    1.0771    1.4307 C.3       1 <0>        -0.1740
     10 N2          2.6172   -0.7661   -2.5292 N.pl3     1 <0>        -0.5222
     11 C9          3.4979   -0.1439   -3.5210 C.3       1 <0>         0.1282
     12 C10         4.9335   -0.3161   -3.0962 C.ar      1 <0>        -0.1548
     13 C11         5.5739    0.6905   -2.3995 C.ar      1 <0>        -0.0670
     14 C12         6.8910    0.5334   -2.0100 C.ar      1 <0>        -0.1535
     15 C13         7.5707   -0.6313   -2.3161 C.ar      1 <0>        -0.0619
     16 C14         6.9349   -1.6408   -3.0121 C.ar      1 <0>        -0.2023
     17 C15         5.6114   -1.4877   -3.3995 C.ar      1 <0>         0.1488
     18 O1          4.9818   -2.4818   -4.0795 O.3       1 <0>        -0.3168
     19 C16         5.7414   -3.6599   -4.3571 C.3       1 <0>         0.0145
     20 C17         2.1508   -2.0143   -2.7310 C.2       1 <0>         0.5830
     21 S1          1.0548   -2.7095   -1.6146 S.2       1 <0>        -0.5626
     22 N3          2.5473   -2.7154   -3.8117 N.pl3     1 <0>        -0.6712
     23 C18         2.0751   -2.3689   -5.0820 C.ar      1 <0>         0.2047
     24 C19         1.2435   -1.2673   -5.2387 C.ar      1 <0>        -0.1831
     25 C20         0.7786   -0.9273   -6.4938 C.ar      1 <0>        -0.0599
     26 C21         1.1398   -1.6821   -7.5948 C.ar      1 <0>        -0.1407
     27 C22         1.9677   -2.7805   -7.4426 C.ar      1 <0>         0.0099
     28 C23         2.4412   -3.1220   -6.1895 C.ar      1 <0>        -0.1497
     29 Cl1         2.4177   -3.7259   -8.8273 Cl        1 <0>        -0.0513
     30 C24        -1.2368    0.7870    0.0863 C.3       1 <0>        -0.1779
     31 H1          1.7402    2.4816   -0.1605 H         1 <0>         0.0779
     32 H2          0.2256    2.7686   -1.0504 H         1 <0>         0.1029
     33 H3          0.2552    2.9066    0.7240 H         1 <0>         0.0836
     34 H4          0.2462   -0.8368   -1.3084 H         1 <0>         0.1499
     35 H5          0.4056    0.7161   -2.1556 H         1 <0>         0.1035
     36 H6          2.7379    0.9372   -1.3207 H         1 <0>         0.1088
     37 H7          2.1752   -1.8184   -0.1183 H         1 <0>         0.1474
     38 H8          3.7413   -0.9808   -0.0963 H         1 <0>         0.1034
     39 H9          0.7284    0.9723    1.9634 H         1 <0>         0.4236
     40 H10         3.5039   -1.3918    2.4134 H         1 <0>         0.1036
     41 H11         2.1748   -0.6078    3.3005 H         1 <0>         0.0821
     42 H12         1.8346   -1.9770    2.2152 H         1 <0>         0.0857
     43 H13         3.1246    1.7655    0.5879 H         1 <0>         0.0779
     44 H14         2.8933    1.5933    2.3444 H         1 <0>         0.0822
     45 H15         4.2123    0.7182    1.5304 H         1 <0>         0.1028
     46 H16         3.3463   -0.6189   -4.4903 H         1 <0>         0.1174
     47 H17         3.2664    0.9185   -3.5968 H         1 <0>         0.1015
     48 H18         5.0452    1.6011   -2.1592 H         1 <0>         0.1266
     49 H19         7.3901    1.3217   -1.4660 H         1 <0>         0.1299
     50 H20         8.5998   -0.7516   -2.0110 H         1 <0>         0.1317
     51 H21         7.4662   -2.5503   -3.2509 H         1 <0>         0.1345
     52 H22         6.6110   -3.3979   -4.9599 H         1 <0>         0.0662
     53 H23         6.0708   -4.1090   -3.4202 H         1 <0>         0.0618
     54 H24         5.1219   -4.3714   -4.9031 H         1 <0>         0.1052
     55 H25         3.1601   -3.4602   -3.7086 H         1 <0>         0.4328
     56 H26         0.9605   -0.6773   -4.3795 H         1 <0>         0.1193
     57 H27         0.1318   -0.0710   -6.6157 H         1 <0>         0.1379
     58 H28         0.7748   -1.4140   -8.5753 H         1 <0>         0.1394
     59 H29         3.0915   -3.9762   -6.0715 H         1 <0>         0.1369
     60 H30        -1.6848    1.2169   -0.8096 H         1 <0>         0.1046
     61 H31        -1.5325   -0.2584    0.1746 H         1 <0>         0.0851
     62 H32        -1.5789    1.3367    0.9632 H         1 <0>         0.0823
     63 H33         0.2863   -0.5058    1.4601 H         1 <0>         0.4280
@<TRIPOS>BOND
     1    1    2 1
     2    1   31 1
     3    1   32 1
     4    1   33 1
     5    2    7 1
     6    2    3 1
     7    2   30 1
     8    3    4 1
     9    3   34 1
    10    3   35 1
    11    4    5 1
    12    4   10 1
    13    4   36 1
    14    5    6 1
    15    5   37 1
    16    5   38 1
    17    6    7 1
    18    6    8 1
    19    6    9 1
    20    7   39 1
    21    7   63 1
    22    8   40 1
    23    8   41 1
    24    8   42 1
    25    9   43 1
    26    9   44 1
    27    9   45 1
    28   10   11 1
    29   10   20 1
    30   11   12 1
    31   11   46 1
    32   11   47 1
    33   12   17 ar
    34   12   13 ar
    35   13   14 ar
    36   13   48 1
    37   14   15 ar
    38   14   49 1
    39   15   16 ar
    40   15   50 1
    41   16   17 ar
    42   16   51 1
    43   17   18 1
    44   18   19 1
    45   19   52 1
    46   19   53 1
    47   19   54 1
    48   20   21 2
    49   20   22 1
    50   22   23 1
    51   22   55 1
    52   23   28 ar
    53   23   24 ar
    54   24   25 ar
    55   24   56 1
    56   25   26 ar
    57   25   57 1
    58   26   27 ar
    59   26   58 1
    60   27   28 ar
    61   27   29 1
    62   28   59 1
    63   30   60 1
    64   30   61 1
    65   30   62 1
@<TRIPOS>MOLECULE
ZINC63513888
   60    63     0     0     0
SMALL
USER_CHARGES

@<TRIPOS>ATOM
      1 C1         -0.3236    1.3270    0.0352 C.3       1 <0>        -0.1564
      2 C2         -0.7714   -0.1305   -0.0916 C.3       1 <0>         0.0986
      3 H1         -1.8536   -0.1817   -0.2107 H         1 <0>         0.1727
      4 C3         -0.0857   -0.7859   -1.2696 C.2       1 <0>         0.0735
      5 C4          0.6359   -1.8105   -0.7607 C.ar      1 <0>        -0.1708
      6 C5          1.5094   -2.8150   -1.3791 C.ar      1 <0>        -0.0258
      7 C6          2.1090   -3.7368   -0.5918 C.ar      1 <0>        -0.1515
      8 C7          1.9177   -3.7567    0.7966 C.ar      1 <0>         0.0598
      9 C8          1.1301   -2.8669    1.4371 C.ar      1 <0>        -0.2136
     10 C9          0.4503   -1.8530    0.7074 C.ar      1 <0>         0.3345
     11 N1         -0.3563   -0.8918    1.0920 N.pl3     1 <0>        -0.5874
     12 C10        -0.1862   -0.3797   -2.7173 C.3       1 <0>        -0.1059
     13 C11         0.6705   -1.3170   -3.5707 C.3       1 <0>         0.1090
     14 N2          0.5729   -0.9221   -4.9781 N.am      1 <0>        -0.7320
     15 C12         1.2487   -1.6101   -5.9195 C.2       1 <0>         0.5594
     16 O1          1.9398   -2.5591   -5.6006 O.2       1 <0>        -0.5045
     17 C13         1.1506   -1.2137   -7.3321 C.2       1 <0>         0.0641
     18 C14         0.3821   -0.1584   -7.6867 C.2       1 <0>        -0.0488
     19 C15         0.1595    0.1445   -9.1091 C.ar      1 <0>        -0.0851
     20 C16         0.3973   -0.8324  -10.0814 C.ar      1 <0>        -0.1171
     21 C17         0.1864   -0.5407  -11.4125 C.ar      1 <0>        -0.1212
     22 C18        -0.2594    0.7149  -11.7873 C.ar      1 <0>        -0.0975
     23 C19        -0.4970    1.6869  -10.8311 C.ar      1 <0>        -0.1199
     24 C20        -0.2964    1.4090   -9.4956 C.ar      1 <0>        -0.0913
     25 N3          1.8515   -1.9273   -8.3085 N.am      1 <0>        -0.6603
     26 C21         1.6514   -3.2528   -8.4482 C.2       1 <0>         0.5654
     27 O2          0.9459   -3.8478   -7.6568 O.2       1 <0>        -0.4872
     28 C22         2.2895   -3.9831   -9.5637 C.ar      1 <0>        -0.1375
     29 C23         3.1922   -3.3292  -10.4044 C.ar      1 <0>        -0.0399
     30 C24         3.7846   -4.0167  -11.4431 C.ar      1 <0>        -0.1163
     31 C25         3.4856   -5.3514  -11.6531 C.ar      1 <0>        -0.0256
     32 C26         2.5920   -6.0053  -10.8238 C.ar      1 <0>        -0.0520
     33 C27         1.9968   -5.3309   -9.7776 C.ar      1 <0>         0.0051
     34 N4          2.2777   -7.4329  -11.0563 N.pl3     1 <0>         0.0293
     35 O3          2.8017   -8.0263  -11.9700 O.2       1 <0>        -0.1446
     36 O4          1.4969   -8.0056  -10.3323 O.3       1 <0>        -0.1478
     37 H2          0.7578    1.3648    0.1661 H         1 <0>         0.0820
     38 H3         -0.5995    1.8717   -0.8678 H         1 <0>         0.1061
     39 H4         -0.8102    1.7829    0.8974 H         1 <0>         0.0955
     40 H5          1.6705   -2.8182   -2.4470 H         1 <0>         0.1719
     41 H6          2.7518   -4.4771   -1.0447 H         1 <0>         0.1588
     42 H7          2.4207   -4.5154    1.3778 H         1 <0>         0.1615
     43 H8          1.0157   -2.9252    2.5094 H         1 <0>         0.1608
     44 H9         -1.2252   -0.4418   -3.0408 H         1 <0>         0.1318
     45 H10         0.1698    0.6441   -2.8330 H         1 <0>         0.1312
     46 H11         1.7096   -1.2549   -3.2472 H         1 <0>         0.0840
     47 H12         0.3146   -2.3407   -3.4550 H         1 <0>         0.0851
     48 H13         0.0218   -0.1654   -5.2323 H         1 <0>         0.4033
     49 H14        -0.0681    0.4617   -6.9257 H         1 <0>         0.1425
     50 H15         0.7455   -1.8125   -9.7905 H         1 <0>         0.1352
     51 H16         0.3698   -1.2938  -12.1645 H         1 <0>         0.1265
     52 H17        -0.4224    0.9374  -12.8315 H         1 <0>         0.1282
     53 H18        -0.8445    2.6644  -11.1316 H         1 <0>         0.1299
     54 H19        -0.4865    2.1671   -8.7502 H         1 <0>         0.1286
     55 H20         2.4820   -1.4685   -8.8855 H         1 <0>         0.4155
     56 H21         3.4259   -2.2874  -10.2419 H         1 <0>         0.1450
     57 H22         4.4831   -3.5121  -12.0942 H         1 <0>         0.1597
     58 H23         3.9516   -5.8849  -12.4684 H         1 <0>         0.1636
     59 H24         1.3024   -5.8436   -9.1284 H         1 <0>         0.1675
     60 H25        -0.6319   -0.7138    2.0048 H         1 <0>         0.4542
@<TRIPOS>BOND
     1    1    2 1
     2    1   37 1
     3    1   38 1
     4    1   39 1
     5    2    3 1
     6    2   11 1
     7    2    4 1
     8    4    5 2
     9    4   12 1
    10    5   10 ar
    11    5    6 ar
    12    6    7 ar
    13    6   40 1
    14    7    8 ar
    15    7   41 1
    16    8    9 ar
    17    8   42 1
    18    9   10 ar
    19    9   43 1
    20   10   11 2
    21   11   60 1
    22   12   13 1
    23   12   44 1
    24   12   45 1
    25   13   14 1
    26   13   46 1
    27   13   47 1
    28   14   15 am
    29   14   48 1
    30   15   16 2
    31   15   17 1
    32   17   18 2
    33   17   25 1
    34   18   19 1
    35   18   49 1
    36   19   24 ar
    37   19   20 ar
    38   20   21 ar
    39   20   50 1
    40   21   22 ar
    41   21   51 1
    42   22   23 ar
    43   22   52 1
    44   23   24 ar
    45   23   53 1
    46   24   54 1
    47   25   26 am
    48   25   55 1
    49   26   27 2
    50   26   28 1
    51   28   33 ar
    52   28   29 ar
    53   29   30 ar
    54   29   56 1
    55   30   31 ar
    56   30   57 1
    57   31   32 ar
    58   31   58 1
    59   32   33 ar
    60   32   34 1
    61   33   59 1
    62   34   35 2
    63   34   36 1
@<TRIPOS>MOLECULE
ZINC02291747
   52    56     0     0     0
SMALL
USER_CHARGES
2-amino-1-(4-bromophenyl)-N-[(1S)-1-phenylethyl]pyrrolo[5,4-b]quinoxaline-3-carboxamide
@<TRIPOS>ATOM
      1 C1         -1.4083   -2.6666   -1.0410 C.3       1 <0>        -0.1588
      2 C2          0.0204   -2.1364   -1.1769 C.3       1 <0>         0.1831
      3 H1          0.6224   -2.4962   -0.3424 H         1 <0>         0.0981
      4 C3          0.6159   -2.6236   -2.4727 C.ar      1 <0>        -0.0917
      5 C4          0.2992   -1.9906   -3.6600 C.ar      1 <0>        -0.1146
      6 C5          0.8488   -2.4347   -4.8481 C.ar      1 <0>        -0.1156
      7 C6          1.7080   -3.5176   -4.8500 C.ar      1 <0>        -0.1189
      8 C7          2.0206   -4.1540   -3.6633 C.ar      1 <0>        -0.1153
      9 C8          1.4744   -3.7071   -2.4747 C.ar      1 <0>        -0.1077
     10 N1          0.0006   -0.6716   -1.1688 N.am      1 <0>        -0.7163
     11 C9          0.0021   -0.0041    0.0020 C.2       1 <0>         0.6136
     12 O1          0.0199   -0.6185    1.0532 O.2       1 <0>        -0.5276
     13 C10        -0.0177    1.4570    0.0101 C.2       1 <0>        -0.3126
     14 C11        -1.2092    2.3215    0.0196 C.ar      1 <0>         0.1782
     15 C12        -0.6941    3.6936    0.0277 C.ar      1 <0>         0.2882
     16 N2         -1.5393    4.7019    0.0407 N.ar      1 <0>        -0.4331
     17 C13        -2.8577    4.4674    0.0372 C.ar      1 <0>         0.0958
     18 C14        -3.7686    5.5400    0.0466 C.ar      1 <0>        -0.0833
     19 C15        -5.1063    5.2924    0.0503 C.ar      1 <0>        -0.1015
     20 C16        -5.5937    3.9866    0.0460 C.ar      1 <0>        -0.1003
     21 C17        -4.7445    2.9240    0.0375 C.ar      1 <0>        -0.0831
     22 C18        -3.3536    3.1398    0.0329 C.ar      1 <0>         0.0916
     23 N3         -2.5087    2.1017    0.0240 N.ar      1 <0>        -0.4164
     24 N4          0.6847    3.6067    0.0144 N.pl3     1 <0>        -0.4450
     25 C19         1.0851    2.3039    0.0041 C.2       1 <0>         0.4808
     26 N5          2.3909    1.8873   -0.0106 N.pl3     1 <0>        -0.8255
     27 C20         1.5525    4.7071    0.0126 C.ar      1 <0>         0.1234
     28 C21         1.5902    5.5649    1.1038 C.ar      1 <0>        -0.0864
     29 C22         2.4505    6.6453    1.1019 C.ar      1 <0>        -0.0741
     30 C23         3.2661    6.8798    0.0092 C.ar      1 <0>        -0.0797
     31 C24         3.2264    6.0299   -1.0819 C.ar      1 <0>        -0.0758
     32 C25         2.3721    4.9447   -1.0827 C.ar      1 <0>        -0.1075
     33 Br1         4.4367    8.3650    0.0065 Br        1 <0>        -0.0321
     34 H2         -1.3935   -3.7565   -1.0470 H         1 <0>         0.0673
     35 H3         -1.8390   -2.3142   -0.1037 H         1 <0>         0.0683
     36 H4         -2.0103   -2.3068   -1.8754 H         1 <0>         0.0593
     37 H5         -0.3750   -1.1468   -3.6591 H         1 <0>         0.1199
     38 H6          0.6049   -1.9373   -5.7752 H         1 <0>         0.1232
     39 H7          2.1353   -3.8663   -5.7786 H         1 <0>         0.1228
     40 H8          2.6918   -5.0000   -3.6648 H         1 <0>         0.1245
     41 H9          1.7186   -4.2043   -1.5475 H         1 <0>         0.1252
     42 H10        -0.0137   -0.1821   -2.0062 H         1 <0>         0.3999
     43 H11        -3.4065    6.5575    0.0500 H         1 <0>         0.1374
     44 H12        -5.8006    6.1196    0.0572 H         1 <0>         0.1354
     45 H13        -6.6602    3.8161    0.0499 H         1 <0>         0.1357
     46 H14        -5.1363    1.9175    0.0346 H         1 <0>         0.1394
     47 H15         2.5975    0.9396   -0.0173 H         1 <0>         0.4288
     48 H16         3.1083    2.5402   -0.0143 H         1 <0>         0.4106
     49 H17         0.9505    5.3848    1.9551 H         1 <0>         0.1397
     50 H18         2.4836    7.3101    1.9524 H         1 <0>         0.1460
     51 H19         3.8638    6.2153   -1.9337 H         1 <0>         0.1461
     52 H20         2.3412    4.2818   -1.9347 H         1 <0>         0.1406
@<TRIPOS>BOND
     1    1    2 1
     2    1   34 1
     3    1   35 1
     4    1   36 1
     5    2    3 1
     6    2    4 1
     7    2   10 1
     8    4    9 ar
     9    4    5 ar
    10    5    6 ar
    11    5   37 1
    12    6    7 ar
    13    6   38 1
    14    7    8 ar
    15    7   39 1
    16    8    9 ar
    17    8   40 1
    18    9   41 1
    19   10   11 am
    20   10   42 1
    21   11   12 2
    22   11   13 1
    23   13   25 2
    24   13   14 1
    25   14   23 ar
    26   14   15 ar
    27   15   16 ar
    28   15   24 1
    29   16   17 ar
    30   17   22 ar
    31   17   18 ar
    32   18   19 ar
    33   18   43 1
    34   19   20 ar
    35   19   44 1
    36   20   21 ar
    37   20   45 1
    38   21   22 ar
    39   21   46 1
    40   22   23 ar
    41   24   25 1
    42   24   27 1
    43   25   26 1
    44   26   47 1
    45   26   48 1
    46   27   32 ar
    47   27   28 ar
    48   28   29 ar
    49   28   49 1
    50   29   30 ar
    51   29   50 1
    52   30   31 ar
    53   30   33 1
    54   31   32 ar
    55   31   51 1
    56   32   52 1
@<TRIPOS>MOLECULE
ZINC13988374
   46    47     0     0     0
SMALL
USER_CHARGES
N-[[[2-[(1,6-dibromo-2-naphthyl)oxy]acetyl]amino]carbamothioyl]-2,2-dimethyl-propanamide
@<TRIPOS>ATOM
      1 C1         -6.6246   -8.0266    0.0259 C.3       1 <0>        -0.1328
      2 C2         -5.5903   -6.8992    0.0215 C.3       1 <0>        -0.0802
      3 C3         -5.7648   -6.0421    1.2769 C.3       1 <0>        -0.1457
      4 C4         -5.7891   -6.0295   -1.2214 C.3       1 <0>        -0.1457
      5 C5         -4.2038   -7.4896    0.0051 C.2       1 <0>         0.4960
      6 O1         -4.0575   -8.6931   -0.0024 O.2       1 <0>        -0.3986
      7 N1         -3.1266   -6.6796   -0.0013 N.am      1 <0>        -0.6452
      8 C6         -1.8866   -7.2076   -0.0160 C.2       1 <0>         0.5143
      9 S1         -1.6799   -8.9070   -0.0267 S.2       1 <0>        -0.4534
     10 N2         -0.8094   -6.3977   -0.0224 N.pl3     1 <0>        -0.4559
     11 N3         -0.9785   -5.0070   -0.0137 N.am      1 <0>        -0.5506
     12 C7          0.0987   -4.1970   -0.0201 C.2       1 <0>         0.5212
     13 O2          1.2145   -4.6721   -0.0334 O.2       1 <0>        -0.4815
     14 C8         -0.0832   -2.7011   -0.0108 C.3       1 <0>         0.0485
     15 O3          1.1966   -2.0655   -0.0200 O.3       1 <0>        -0.2720
     16 C9          1.2107   -0.7064   -0.0133 C.ar      1 <0>         0.1686
     17 C10         0.0021   -0.0041    0.0020 C.ar      1 <0>        -0.1933
     18 C11        -0.0164    1.3559    0.0095 C.ar      1 <0>        -0.0352
     19 C12         1.1946    2.0700    0.0018 C.ar      1 <0>        -0.0770
     20 C13         1.2112    3.4751    0.0100 C.ar      1 <0>        -0.0553
     21 C14         2.4024    4.1350    0.0022 C.ar      1 <0>        -0.0938
     22 C15         3.6095    3.4368   -0.0129 C.ar      1 <0>        -0.0722
     23 C16         3.6316    2.0763   -0.0209 C.ar      1 <0>        -0.1085
     24 C17         2.4217    1.3607   -0.0137 C.ar      1 <0>         0.0147
     25 C18         2.4061   -0.0444   -0.0211 C.ar      1 <0>        -0.1275
     26 Br1         4.0298   -1.0135   -0.0425 Br        1 <0>        -0.0146
     27 Br2         2.4200    6.0259    0.0127 Br        1 <0>        -0.0415
     28 H1         -6.4830   -8.6462    0.9114 H         1 <0>         0.0679
     29 H2         -7.6274   -7.5996    0.0378 H         1 <0>         0.0698
     30 H3         -6.5003   -8.6372   -0.8684 H         1 <0>         0.0679
     31 H4         -5.0279   -5.2390    1.2738 H         1 <0>         0.0544
     32 H5         -6.7676   -5.6152    1.2888 H         1 <0>         0.0783
     33 H6         -5.6232   -6.6617    2.1624 H         1 <0>         0.0674
     34 H7         -5.6648   -6.6401   -2.1158 H         1 <0>         0.0675
     35 H8         -6.7919   -5.6025   -1.2095 H         1 <0>         0.0783
     36 H9         -5.0522   -5.2263   -1.2245 H         1 <0>         0.0544
     37 H10        -3.2437   -5.7167    0.0047 H         1 <0>         0.4008
     38 H11         0.0830   -6.7777   -0.0330 H         1 <0>         0.4586
     39 H12        -1.8709   -4.6270   -0.0031 H         1 <0>         0.4195
     40 H13        -0.6285   -2.4070    0.8860 H         1 <0>         0.1079
     41 H14        -0.6458   -2.3980   -0.8938 H         1 <0>         0.1079
     42 H15        -0.9303   -0.5491    0.0084 H         1 <0>         0.1423
     43 H16        -0.9577    1.8852    0.0168 H         1 <0>         0.1452
     44 H17         0.2841    4.0288    0.0217 H         1 <0>         0.1435
     45 H18         4.5406    3.9840   -0.0188 H         1 <0>         0.1399
     46 H19         4.5740    1.5489   -0.0329 H         1 <0>         0.1458
@<TRIPOS>BOND
     1    1    2 1
     2    1   28 1
     3    1   29 1
     4    1   30 1
     5    2    3 1
     6    2    4 1
     7    2    5 1
     8    3   31 1
     9    3   32 1
    10    3   33 1
    11    4   34 1
    12    4   35 1
    13    4   36 1
    14    5    6 2
    15    5    7 am
    16    7    8 1
    17    7   37 1
    18    8    9 2
    19    8   10 1
    20   10   11 1
    21   10   38 1
    22   11   12 am
    23   11   39 1
    24   12   13 2
    25   12   14 1
    26   14   15 1
    27   14   40 1
    28   14   41 1
    29   15   16 1
    30   16   25 ar
    31   16   17 ar
    32   17   18 ar
    33   17   42 1
    34   18   19 ar
    35   18   43 1
    36   19   24 ar
    37   19   20 ar
    38   20   21 ar
    39   20   44 1
    40   21   22 ar
    41   21   27 1
    42   22   23 ar
    43   22   45 1
    44   23   24 ar
    45   23   46 1
    46   24   25 ar
    47   25   26 1
@<TRIPOS>MOLECULE
ZINC12250850
   59    62     0     0     0
SMALL
USER_CHARGES
(3R,4R)-6-(2-anilino-2-oxo-ethyl)sulfanyl-5-cyano-4-(2-fluorophenyl)-2-methyl-N-phenyl-3,4-dihydropyridine-3-carboxamide
@<TRIPOS>ATOM
      1 C1         -2.5064   -1.9829    1.5893 C.3       1 <0>        -0.1434
      2 C2         -1.7742   -2.6632    0.4614 C.2       1 <0>         0.2091
      3 N1         -2.3377   -2.7539   -0.6950 N.pl3     1 <0>        -0.5843
      4 C3         -1.7220   -3.3550   -1.7465 C.2       1 <0>         0.1020
      5 C4         -0.3690   -3.5421   -1.7463 C.2       1 <0>        -0.0440
      6 C5          0.4449   -3.0802   -0.5630 C.3       1 <0>         0.0667
      7 H1          1.3610   -3.6847   -0.4900 H         1 <0>         0.1045
      8 C6         -0.3990   -3.2244    0.7061 C.2       1 <0>        -0.2719
      9 C7          0.2575   -2.4710    1.8341 C.2       1 <0>         0.5560
     10 O1          1.2468   -1.8022    1.6218 O.2       1 <0>        -0.5128
     11 N2         -0.2546   -2.5403    3.0788 N.am      1 <0>        -0.6883
     12 C8          0.2844   -1.7528    4.1021 C.ar      1 <0>         0.1569
     13 C9          0.3186   -2.2325    5.4049 C.ar      1 <0>        -0.1509
     14 C10         0.8561   -1.4548    6.4117 C.ar      1 <0>        -0.1002
     15 C11         1.3500   -0.1953    6.1255 C.ar      1 <0>        -0.1409
     16 C12         1.3122    0.2876    4.8303 C.ar      1 <0>        -0.1006
     17 C13         0.7812   -0.4875    3.8180 C.ar      1 <0>        -0.1253
     18 C14         0.8324   -1.6359   -0.7500 C.ar      1 <0>        -0.0899
     19 C15        -0.1464   -0.6700   -0.8902 C.ar      1 <0>        -0.1064
     20 C16         0.2088    0.6547   -1.0622 C.ar      1 <0>        -0.1321
     21 C17         1.5432    1.0153   -1.0942 C.ar      1 <0>        -0.0952
     22 C18         2.5234    0.0515   -0.9543 C.ar      1 <0>        -0.1514
     23 C19         2.1688   -1.2760   -0.7819 C.ar      1 <0>         0.1398
     24 F1          3.1263   -2.2192   -0.6446 F         1 <0>        -0.1352
     25 C20         0.2722   -4.1722   -2.8610 C.1       1 <0>         0.2474
     26 N3          0.7808   -4.6721   -3.7453 N.1       1 <0>        -0.3874
     27 S1         -2.6780   -3.8981   -3.1234 S.3       1 <0>         0.0501
     28 C21        -4.3296   -3.4006   -2.5752 C.3       1 <0>        -0.1875
     29 C22        -5.3421   -3.7761   -3.6263 C.2       1 <0>         0.5359
     30 O2         -4.9825   -4.3260   -4.6457 O.2       1 <0>        -0.4950
     31 N4         -6.6473   -3.5009   -3.4335 N.am      1 <0>        -0.6776
     32 C23        -7.6000   -3.9456   -4.3568 C.ar      1 <0>         0.1439
     33 C24        -8.7323   -3.1827   -4.6106 C.ar      1 <0>        -0.1428
     34 C25        -9.6685   -3.6225   -5.5258 C.ar      1 <0>        -0.1004
     35 C26        -9.4844   -4.8258   -6.1817 C.ar      1 <0>        -0.1309
     36 C27        -8.3603   -5.5901   -5.9277 C.ar      1 <0>        -0.0989
     37 C28        -7.4179   -5.1537   -5.0172 C.ar      1 <0>        -0.1217
     38 H2         -3.4881   -1.6372    1.2334 H         1 <0>         0.0785
     39 H3         -1.9195   -1.1214    1.9405 H         1 <0>         0.1038
     40 H4         -2.6459   -2.6936    2.4172 H         1 <0>         0.1056
     41 H5         -1.0964   -3.2160    3.2904 H         1 <0>         0.4294
     42 H6         -0.0707   -3.2145    5.6297 H         1 <0>         0.1239
     43 H7          0.8870   -1.8291    7.4243 H         1 <0>         0.1235
     44 H8          1.7657    0.4128    6.9154 H         1 <0>         0.1204
     45 H9          1.6987    1.2717    4.6100 H         1 <0>         0.1215
     46 H10         0.7527   -0.1100    2.8065 H         1 <0>         0.1303
     47 H11        -1.1890   -0.9506   -0.8657 H         1 <0>         0.1145
     48 H12        -0.5566    1.4081   -1.1761 H         1 <0>         0.1216
     49 H13         1.8195    2.0506   -1.2286 H         1 <0>         0.1279
     50 H14         3.5657    0.3333   -0.9797 H         1 <0>         0.1315
     51 H15        -4.5727   -3.9126   -1.6324 H         1 <0>         0.1320
     52 H16        -4.3512   -2.3122   -2.4175 H         1 <0>         0.1253
     53 H17        -6.9637   -2.9267   -2.5502 H         1 <0>         0.4366
     54 H18        -8.8787   -2.2448   -4.0957 H         1 <0>         0.1261
     55 H19       -10.5475   -3.0278   -5.7263 H         1 <0>         0.1280
     56 H20       -10.2202   -5.1696   -6.8935 H         1 <0>         0.1255
     57 H21        -8.2193   -6.5295   -6.4415 H         1 <0>         0.1276
     58 H22        -6.5406   -5.7514   -4.8187 H         1 <0>         0.1327
     59 H23        -3.3442   -2.3382   -0.8505 H         1 <0>         0.4364
@<TRIPOS>BOND
     1    1    2 1
     2    1   38 1
     3    1   39 1
     4    1   40 1
     5    2    8 2
     6    2    3 1
     7    3    4 1
     8    3   59 1
     9    4    5 2
    10    4   27 1
    11    5    6 1
    12    5   25 1
    13    6    7 1
    14    6    8 1
    15    6   18 1
    16    8    9 1
    17    9   10 2
    18    9   11 am
    19   11   12 1
    20   11   41 1
    21   12   17 ar
    22   12   13 ar
    23   13   14 ar
    24   13   42 1
    25   14   15 ar
    26   14   43 1
    27   15   16 ar
    28   15   44 1
    29   16   17 ar
    30   16   45 1
    31   17   46 1
    32   18   23 ar
    33   18   19 ar
    34   19   20 ar
    35   19   47 1
    36   20   21 ar
    37   20   48 1
    38   21   22 ar
    39   21   49 1
    40   22   23 ar
    41   22   50 1
    42   23   24 1
    43   25   26 3
    44   27   28 1
    45   28   29 1
    46   28   51 1
    47   28   52 1
    48   29   30 2
    49   29   31 am
    50   31   32 1
    51   31   53 1
    52   32   37 ar
    53   32   33 ar
    54   33   34 ar
    55   33   54 1
    56   34   35 ar
    57   34   55 1
    58   35   36 ar
    59   35   56 1
    60   36   37 ar
    61   36   57 1
    62   37   58 1
@<TRIPOS>MOLECULE
ZINC34976349
   56    58     0     0     0
SMALL
USER_CHARGES

@<TRIPOS>ATOM
      1 C1          2.8721   -1.8986   -4.1906 C.ar      1 <0>        -0.1107
      2 C2          3.8707   -0.9785   -3.9315 C.ar      1 <0>        -0.1221
      3 C3          5.0320   -1.3789   -3.2975 C.ar      1 <0>        -0.0998
      4 C4          5.1945   -2.6994   -2.9221 C.ar      1 <0>        -0.1116
      5 C5          4.1955   -3.6193   -3.1804 C.ar      1 <0>        -0.0995
      6 C6          3.0349   -3.2192   -3.8157 C.ar      1 <0>        -0.1218
      7 C7          6.4609   -3.1361   -2.2318 C.3       1 <0>         0.1806
      8 N1          6.2989   -2.9996   -0.7822 N.am      1 <0>        -0.7414
      9 C8          7.3104   -3.3340    0.0434 C.2       1 <0>         0.7062
     10 O1          8.3573   -3.7491   -0.4149 O.2       1 <0>        -0.5859
     11 N2          7.1613   -3.2084    1.3770 N.am      1 <0>        -0.7435
     12 C9          8.2608   -3.5720    2.2743 C.3       1 <0>         0.1238
     13 C10         7.8343   -3.3366    3.7247 C.3       1 <0>         0.1234
     14 N3          8.9338   -3.7002    4.6221 N.am      1 <0>        -0.5719
     15 C11         9.8831   -2.7391    4.9915 C.ar      1 <0>         0.1006
     16 C12        11.1968   -2.8569    4.5577 C.ar      1 <0>        -0.0893
     17 C13        12.1315   -1.9081    4.9232 C.ar      1 <0>        -0.1379
     18 C14        11.7593   -0.8398    5.7217 C.ar      1 <0>         0.1098
     19 C15        10.4497   -0.7204    6.1554 C.ar      1 <0>        -0.1399
     20 C16         9.5106   -1.6641    5.7874 C.ar      1 <0>        -0.0851
     21 F1         12.6752    0.0871    6.0784 F         1 <0>        -0.1322
     22 C17         9.0317   -4.9595    5.0922 C.2       1 <0>         0.7157
     23 O2          8.2979   -5.8280    4.6612 O.2       1 <0>        -0.5511
     24 N4          9.9428   -5.2561    6.0400 N.am      1 <0>        -0.6759
     25 C18        10.1745   -6.5898    6.3948 C.ar      1 <0>         0.1628
     26 C19         9.1698   -7.5360    6.2389 C.ar      1 <0>        -0.1026
     27 C20         9.4017   -8.8513    6.5896 C.ar      1 <0>        -0.0977
     28 C21        10.6327   -9.2268    7.0960 C.ar      1 <0>        -0.0904
     29 C22        11.6347   -8.2872    7.2529 C.ar      1 <0>        -0.1610
     30 C23        11.4111   -6.9710    6.8982 C.ar      1 <0>        -0.1024
     31 C24        12.9743   -8.7005    7.8060 C.3       1 <0>         0.5098
     32 F2         12.9612  -10.0716    8.0836 F         1 <0>        -0.1749
     33 F3         13.9724   -8.4245    6.8654 F         1 <0>        -0.1756
     34 F4         13.2326   -7.9890    8.9825 F         1 <0>        -0.1760
     35 H1          1.9630   -1.5849   -4.6819 H         1 <0>         0.1239
     36 H2          3.7438    0.0531   -4.2248 H         1 <0>         0.1247
     37 H3          5.8125   -0.6602   -3.0957 H         1 <0>         0.1241
     38 H4          4.3226   -4.6510   -2.8874 H         1 <0>         0.1245
     39 H5          2.2546   -3.9380   -4.0178 H         1 <0>         0.1249
     40 H6          6.6682   -4.1776   -2.4777 H         1 <0>         0.0760
     41 H7          7.2901   -2.5121   -2.5651 H         1 <0>         0.0758
     42 H8          5.4637   -2.6685   -0.4166 H         1 <0>         0.3975
     43 H9          6.3261   -2.8774    1.7426 H         1 <0>         0.3969
     44 H10         8.5107   -4.6238    2.1352 H         1 <0>         0.0757
     45 H11         9.1327   -2.9583    2.0479 H         1 <0>         0.0688
     46 H12         7.5844   -2.2848    3.8639 H         1 <0>         0.0905
     47 H13         6.9624   -3.9503    3.9512 H         1 <0>         0.0992
     48 H14        11.4876   -3.6902    3.9352 H         1 <0>         0.1392
     49 H15        13.1535   -1.9996    4.5862 H         1 <0>         0.1454
     50 H16        10.1614    0.1133    6.7784 H         1 <0>         0.1449
     51 H17         8.4883   -1.5683    6.1222 H         1 <0>         0.1407
     52 H18        10.4380   -4.5452    6.4761 H         1 <0>         0.4123
     53 H19         8.2081   -7.2433    5.8441 H         1 <0>         0.1667
     54 H20         8.6209   -9.5876    6.4686 H         1 <0>         0.1401
     55 H21        10.8115  -10.2561    7.3699 H         1 <0>         0.1402
     56 H22        12.1957   -6.2384    7.0167 H         1 <0>         0.1358
@<TRIPOS>BOND
     1    1    6 ar
     2    1    2 ar
     3    1   35 1
     4    2    3 ar
     5    2   36 1
     6    3    4 ar
     7    3   37 1
     8    4    5 ar
     9    4    7 1
    10    5    6 ar
    11    5   38 1
    12    6   39 1
    13    7    8 1
    14    7   40 1
    15    7   41 1
    16    8    9 am
    17    8   42 1
    18    9   10 2
    19    9   11 am
    20   11   12 1
    21   11   43 1
    22   12   13 1
    23   12   44 1
    24   12   45 1
    25   13   14 1
    26   13   46 1
    27   13   47 1
    28   14   15 1
    29   14   22 am
    30   15   20 ar
    31   15   16 ar
    32   16   17 ar
    33   16   48 1
    34   17   18 ar
    35   17   49 1
    36   18   19 ar
    37   18   21 1
    38   19   20 ar
    39   19   50 1
    40   20   51 1
    41   22   23 2
    42   22   24 am
    43   24   25 1
    44   24   52 1
    45   25   30 ar
    46   25   26 ar
    47   26   27 ar
    48   26   53 1
    49   27   28 ar
    50   27   54 1
    51   28   29 ar
    52   28   55 1
    53   29   30 ar
    54   29   31 1
    55   30   56 1
    56   31   32 1
    57   31   33 1
    58   31   34 1
@<TRIPOS>MOLECULE
ZINC59384849
   51    53     0     0     0
SMALL
USER_CHARGES

@<TRIPOS>ATOM
      1 C1         -0.8227   -1.3046   -2.6482 C.3       1 <0>        -0.1332
      2 C2         -0.3186   -1.3333   -1.2284 C.2       1 <0>         0.1790
      3 C3         -1.0786   -0.8098   -0.2432 C.2       1 <0>        -0.2504
      4 C4         -0.5340   -0.8594    1.1699 C.3       1 <0>         0.2234
      5 H1         -0.4816    0.1623    1.5459 H         1 <0>         0.1077
      6 N1          0.7892   -1.4790    1.3536 N.pl3     1 <0>        -0.6456
      7 C5          1.4290   -1.9589    0.2688 C.2       1 <0>         0.5580
      8 S1          2.9681   -2.6819    0.4675 S.2       1 <0>        -0.5917
      9 N2          0.8976   -1.8936   -0.9585 N.pl3     1 <0>        -0.5994
     10 C6         -1.5217   -1.6137    2.0223 C.ar      1 <0>        -0.1069
     11 C7         -1.6243   -2.9876    1.9092 C.ar      1 <0>        -0.0923
     12 C8         -2.5298   -3.6799    2.6911 C.ar      1 <0>        -0.0888
     13 C9         -3.3333   -2.9977    3.5868 C.ar      1 <0>        -0.0795
     14 C10        -3.2303   -1.6229    3.6996 C.ar      1 <0>        -0.0852
     15 C11        -2.3209   -0.9321    2.9211 C.ar      1 <0>        -0.0886
     16 Br1        -4.5727   -3.9441    4.6564 Br        1 <0>        -0.0402
     17 C12        -2.3421   -0.2334   -0.5210 C.2       1 <0>         0.6129
     18 O1         -2.4654    0.9779   -0.5514 O.2       1 <0>        -0.4878
     19 N3         -3.4080   -1.0253   -0.7518 N.am      1 <0>        -0.5758
     20 N4         -4.6321   -0.4592   -1.1312 N.2       1 <0>        -0.2435
     21 C13        -5.6587   -1.2220   -1.3535 C.2       1 <0>         0.1325
     22 C14        -6.9466   -0.6264   -1.7527 C.ar      1 <0>        -0.1257
     23 C15        -7.0628    0.7588   -1.8980 C.ar      1 <0>        -0.0230
     24 C16        -8.2678    1.3117   -2.2717 C.ar      1 <0>        -0.2061
     25 C17        -9.3682    0.4934   -2.5038 C.ar      1 <0>         0.2350
     26 C18        -9.2564   -0.8855   -2.3602 C.ar      1 <0>        -0.2053
     27 C19        -8.0531   -1.4461   -1.9924 C.ar      1 <0>        -0.0352
     28 N5        -10.5871    1.0570   -2.8812 N.pl3     1 <0>        -0.6329
     29 C20       -10.7070    2.5092   -3.0325 C.3       1 <0>         0.0883
     30 C21       -11.7473    0.1967   -3.1261 C.3       1 <0>         0.0888
     31 H2         -0.0876   -1.7707   -3.3043 H         1 <0>         0.0886
     32 H3         -1.7638   -1.8510   -2.7108 H         1 <0>         0.0944
     33 H4         -0.9814   -0.2712   -2.9566 H         1 <0>         0.1013
     34 H5          1.1910   -1.5401    2.2344 H         1 <0>         0.4488
     35 H6          1.4067   -2.2608   -1.6980 H         1 <0>         0.4424
     36 H7         -0.9971   -3.5202    1.2096 H         1 <0>         0.1258
     37 H8         -2.6101   -4.7532    2.6025 H         1 <0>         0.1372
     38 H9         -3.8575   -1.0898    4.3988 H         1 <0>         0.1386
     39 H10        -2.2375    0.1409    3.0120 H         1 <0>         0.1371
     40 H11        -3.3276   -1.9871   -0.6552 H         1 <0>         0.3830
     41 H12        -5.5692   -2.2929   -1.2459 H         1 <0>         0.1151
     42 H13        -6.2089    1.3949   -1.7172 H         1 <0>         0.1342
     43 H14        -8.3583    2.3820   -2.3842 H         1 <0>         0.1265
     44 H15       -10.1131   -1.5178   -2.5409 H         1 <0>         0.1274
     45 H16        -7.9659   -2.5172   -1.8851 H         1 <0>         0.1269
     46 H17       -10.4681    2.7885   -4.0587 H         1 <0>         0.0518
     47 H18       -11.7270    2.8157   -2.8007 H         1 <0>         0.0689
     48 H19       -10.0151    3.0039   -2.3508 H         1 <0>         0.0718
     49 H20       -12.3038    0.0642   -2.1983 H         1 <0>         0.0515
     50 H21       -12.3918    0.6599   -3.8733 H         1 <0>         0.0688
     51 H22       -11.4097   -0.7740   -3.4891 H         1 <0>         0.0712
@<TRIPOS>BOND
     1    1    2 1
     2    1   31 1
     3    1   32 1
     4    1   33 1
     5    2    9 1
     6    2    3 2
     7    3    4 1
     8    3   17 1
     9    4    5 1
    10    4    6 1
    11    4   10 1
    12    6    7 1
    13    6   34 1
    14    7    8 2
    15    7    9 1
    16    9   35 1
    17   10   15 ar
    18   10   11 ar
    19   11   12 ar
    20   11   36 1
    21   12   13 ar
    22   12   37 1
    23   13   14 ar
    24   13   16 1
    25   14   15 ar
    26   14   38 1
    27   15   39 1
    28   17   18 2
    29   17   19 am
    30   19   20 1
    31   19   40 1
    32   20   21 2
    33   21   22 1
    34   21   41 1
    35   22   27 ar
    36   22   23 ar
    37   23   24 ar
    38   23   42 1
    39   24   25 ar
    40   24   43 1
    41   25   26 ar
    42   25   28 1
    43   26   27 ar
    44   26   44 1
    45   27   45 1
    46   28   29 1
    47   28   30 1
    48   29   46 1
    49   29   47 1
    50   29   48 1
    51   30   49 1
    52   30   50 1
    53   30   51 1
@<TRIPOS>MOLECULE
ZINC06292347
   41    44     0     0     0
SMALL
USER_CHARGES
1-[(5-amino-1,3,4-thiadiazol-2-yl)sulfanyl]ethyl-methyl-BLAHone
@<TRIPOS>ATOM
      1 C1          3.5464    2.0934   -1.3218 C.3       1 <0>        -0.1473
      2 C2          2.1936    1.3978   -1.1567 C.3       1 <0>        -0.0872
      3 H1          1.6183    1.4937   -2.0775 H         1 <0>         0.0773
      4 C3          1.4207    2.0372   -0.0006 C.3       1 <0>        -0.1176
      5 C4         -0.0186    1.5222    0.0104 C.3       1 <0>        -0.0595
      6 C5          0.0021   -0.0041    0.0020 C.2       1 <0>        -0.0517
      7 C6          1.1126   -0.6743   -0.3858 C.2       1 <0>        -0.1687
      8 S1          0.6923   -2.3929   -0.2402 S.3       1 <0>         0.1662
      9 C7         -0.9651   -2.2097    0.3375 C.2       1 <0>         0.0838
     10 C8         -1.1389   -0.8093    0.3988 C.2       1 <0>        -0.2437
     11 C9         -2.4170   -0.3300    0.8434 C.2       1 <0>         0.5655
     12 O1         -2.6690    0.8594    0.9312 O.2       1 <0>        -0.5046
     13 N1         -3.3248   -1.2841    1.1586 N.am      1 <0>        -0.6352
     14 H2         -4.2293   -0.9960    1.4731 H         1 <0>         0.4212
     15 C10        -3.0650   -2.6106    1.0678 C.2       1 <0>         0.4170
     16 N2         -1.9078   -3.0880    0.6652 N.2       1 <0>        -0.4461
     17 C11        -4.1521   -3.5836    1.4451 C.3       1 <0>        -0.0420
     18 H3         -4.0943   -4.4608    0.8007 H         1 <0>         0.1510
     19 C12        -3.9718   -4.0095    2.9036 C.3       1 <0>        -0.1478
     20 S2         -5.7707   -2.7902    1.2426 S.3       1 <0>         0.0529
     21 C13        -6.9229   -4.0816    1.5736 C.2       1 <0>         0.0366
     22 N3         -6.6975   -5.3407    1.8963 N.2       1 <0>        -0.2600
     23 N4         -7.7564   -6.1912    2.1150 N.2       1 <0>        -0.3717
     24 C14        -8.9917   -5.7441    2.0012 C.2       1 <0>         0.3565
     25 S3         -8.7085   -4.0340    1.5696 S.3       1 <0>         0.0176
     26 N5        -10.1930   -6.4212    2.1756 N.pl3     1 <0>        -0.7857
     27 C15         2.4138   -0.0881   -0.8393 C.3       1 <0>        -0.0335
     28 H4          4.0978    1.6265   -2.1380 H         1 <0>         0.0581
     29 H5          3.3875    3.1479   -1.5471 H         1 <0>         0.0598
     30 H6          4.1175    2.0012   -0.3980 H         1 <0>         0.0575
     31 H7          1.4170    3.1204   -0.1224 H         1 <0>         0.0730
     32 H8          1.9041    1.7816    0.9424 H         1 <0>         0.0664
     33 H9         -0.5429    1.8850   -0.8737 H         1 <0>         0.0800
     34 H10        -0.5258    1.8754    0.9082 H         1 <0>         0.0870
     35 H11        -2.9992   -4.4862    3.0253 H         1 <0>         0.0879
     36 H12        -4.0296   -3.1323    3.5480 H         1 <0>         0.0731
     37 H13        -4.7581   -4.7133    3.1765 H         1 <0>         0.0917
     38 H14       -10.1896   -7.3609    2.4162 H         1 <0>         0.4246
     39 H15       -11.0347   -5.9540    2.0568 H         1 <0>         0.4249
     40 H16         3.1561   -0.1874   -0.0473 H         1 <0>         0.0875
     41 H17         2.7571   -0.6069   -1.7343 H         1 <0>         0.0849
@<TRIPOS>BOND
     1    1    2 1
     2    1   28 1
     3    1   29 1
     4    1   30 1
     5    2    3 1
     6    2   27 1
     7    2    4 1
     8    4    5 1
     9    4   31 1
    10    4   32 1
    11    5    6 1
    12    5   33 1
    13    5   34 1
    14    6   10 1
    15    6    7 2
    16    7    8 1
    17    7   27 1
    18    8    9 1
    19    9   16 1
    20    9   10 2
    21   10   11 1
    22   11   12 2
    23   11   13 am
    24   13   14 1
    25   13   15 1
    26   15   16 2
    27   15   17 1
    28   17   18 1
    29   17   19 1
    30   17   20 1
    31   19   35 1
    32   19   36 1
    33   19   37 1
    34   20   21 1
    35   21   25 1
    36   21   22 2
    37   22   23 1
    38   23   24 2
    39   24   25 1
    40   24   26 1
    41   26   38 1
    42   26   39 1
    43   27   40 1
    44   27   41 1
@<TRIPOS>MOLECULE
ZINC31161284
   60    63     0     0     0
SMALL
USER_CHARGES
(1S,2S,5S,6R)-1-[[(1R,4aS,8aR)-2,5,5,8a-tetramethyl-1,4,4a,6,7,8-hexahydronaphthalen-1-yl]methyl]-4-(hydroxymethyl)-7-oxabicyclo[4.1.0]hept-3-ene-2,5-diol
@<TRIPOS>ATOM
      1 C1         -1.9940    2.6284   -1.5408 C.3       1 <0>        -0.1373
      2 C2         -2.4025    3.1346   -0.1814 C.2       1 <0>        -0.0951
      3 C3         -3.6313    3.4823   -0.0009 C.2       1 <0>        -0.1753
      4 C4         -4.1888    3.9974    1.2856 C.3       1 <0>        -0.0827
      5 C5         -3.1158    4.3260    2.3332 C.3       1 <0>        -0.0535
      6 H1         -2.6230    5.2900    2.1387 H         1 <0>         0.0655
      7 C6         -3.8301    4.3778    3.6876 C.3       1 <0>        -0.0512
      8 C7         -4.2393    2.9895    4.1645 C.3       1 <0>        -0.1073
      9 C8         -3.0900    1.9916    4.1133 C.3       1 <0>        -0.1209
     10 C9         -2.5131    1.9232    2.7005 C.3       1 <0>        -0.1066
     11 C10        -1.9945    3.3000    2.2892 C.3       1 <0>        -0.0410
     12 C11        -1.3684    3.2099    0.8921 C.3       1 <0>        -0.0512
     13 H2         -0.7906    2.2766    0.8201 H         1 <0>         0.1209
     14 C12        -0.4715    4.4280    0.6636 C.3       1 <0>        -0.0902
     15 C13         0.4094    4.1896   -0.5644 C.3       1 <0>         0.0854
     16 C14         1.4478    3.0622   -0.4500 C.3       1 <0>         0.1671
     17 H3          2.2080    3.2672    0.3182 H         1 <0>         0.0857
     18 C15         2.0871    2.8601   -1.8020 C.2       1 <0>        -0.1382
     19 C16         2.4643    3.8898   -2.5184 C.2       1 <0>        -0.1333
     20 C17         2.2655    5.2940   -2.0028 C.3       1 <0>         0.1381
     21 H4          2.4436    6.0323   -2.7985 H         1 <0>         0.0687
     22 C18         0.8528    5.3999   -1.4065 C.3       1 <0>        -0.0678
     23 H5          0.8631    6.4953   -1.3063 H         1 <0>         0.1539
     24 O1         -0.1378    4.4400   -1.8606 O.3       1 <0>        -0.3023
     25 O2          3.2353    5.5805   -0.9931 O.3       1 <0>        -0.5808
     26 C19         3.1012    3.6706   -3.8665 C.3       1 <0>         0.1279
     27 O3          3.1812    2.2690   -4.1333 O.3       1 <0>        -0.5994
     28 O4          0.8027    1.8553   -0.0388 O.3       1 <0>        -0.5787
     29 C20        -0.8279    3.6858    3.2158 C.3       1 <0>        -0.1682
     30 C21        -3.0086    5.0943    4.7602 C.3       1 <0>        -0.1578
     31 C22        -5.1282    5.2066    3.5256 C.3       1 <0>        -0.1541
     32 H6         -2.8657    2.6352   -2.2117 H         1 <0>         0.0459
     33 H7         -1.6096    1.6018   -1.4495 H         1 <0>         0.0603
     34 H8         -1.2086    3.2787   -1.9534 H         1 <0>         0.1027
     35 H9         -4.3511    3.4088   -0.8295 H         1 <0>         0.0953
     36 H10        -4.7559    4.9207    1.0959 H         1 <0>         0.0666
     37 H11        -4.8558    3.2412    1.7251 H         1 <0>         0.0727
     38 H12        -4.5902    3.0480    5.2054 H         1 <0>         0.0588
     39 H13        -5.0487    2.6061    3.5258 H         1 <0>         0.0598
     40 H14        -2.2994    2.3069    4.8101 H         1 <0>         0.0620
     41 H15        -3.4564    0.9952    4.4011 H         1 <0>         0.0586
     42 H16        -1.6849    1.1996    2.6773 H         1 <0>         0.0598
     43 H17        -3.2981    1.6046    1.9989 H         1 <0>         0.0620
     44 H18        -1.0967    5.3180    0.4991 H         1 <0>         0.0712
     45 H19         0.1653    4.5853    1.5467 H         1 <0>         0.1007
     46 H20         2.2356    1.8396   -2.1849 H         1 <0>         0.1359
     47 H21         3.2426    6.5641   -0.5008 H         1 <0>         0.4103
     48 H22         2.4929    4.1575   -4.6429 H         1 <0>         0.0523
     49 H23         4.1128    4.1026   -3.8687 H         1 <0>         0.0538
     50 H24         3.6202    1.9129   -5.0770 H         1 <0>         0.4143
     51 H25         1.3911    0.9359    0.0970 H         1 <0>         0.4058
     52 H26        -0.0414    2.9193    3.1536 H         1 <0>         0.0575
     53 H27        -1.1904    3.7560    4.2520 H         1 <0>         0.0711
     54 H28        -0.4181    4.6579    2.9041 H         1 <0>         0.0612
     55 H29        -3.5684    5.1011    5.7071 H         1 <0>         0.0530
     56 H30        -2.8134    6.1291    4.4422 H         1 <0>         0.0528
     57 H31        -2.0532    4.5681    4.9028 H         1 <0>         0.0720
     58 H32        -5.6553    5.2546    4.4899 H         1 <0>         0.0519
     59 H33        -5.7770    4.7291    2.7765 H         1 <0>         0.0584
     60 H34        -4.8744    6.2247    3.1953 H         1 <0>         0.0526
@<TRIPOS>BOND
     1    1    2 1
     2    1   32 1
     3    1   33 1
     4    1   34 1
     5    2   12 1
     6    2    3 2
     7    3    4 1
     8    3   35 1
     9    4    5 1
    10    4   36 1
    11    4   37 1
    12    5    6 1
    13    5   11 1
    14    5    7 1
    15    7    8 1
    16    7   30 1
    17    7   31 1
    18    8    9 1
    19    8   38 1
    20    8   39 1
    21    9   10 1
    22    9   40 1
    23    9   41 1
    24   10   11 1
    25   10   42 1
    26   10   43 1
    27   11   12 1
    28   11   29 1
    29   12   13 1
    30   12   14 1
    31   14   15 1
    32   14   44 1
    33   14   45 1
    34   15   22 1
    35   15   24 1
    36   15   16 1
    37   16   17 1
    38   16   18 1
    39   16   28 1
    40   18   19 2
    41   18   46 1
    42   19   20 1
    43   19   26 1
    44   20   21 1
    45   20   22 1
    46   20   25 1
    47   22   23 1
    48   22   24 1
    49   25   47 1
    50   26   27 1
    51   26   48 1
    52   26   49 1
    53   27   50 1
    54   28   51 1
    55   29   52 1
    56   29   53 1
    57   29   54 1
    58   30   55 1
    59   30   56 1
    60   30   57 1
    61   31   58 1
    62   31   59 1
    63   31   60 1
@<TRIPOS>MOLECULE
ZINC37042096
   33    34     0     0     0
SMALL
USER_CHARGES

@<TRIPOS>ATOM
      1 C1          0.0326    1.5035    0.0084 C.3       1 <0>        -0.1134
      2 C2          0.0392   -0.0034    0.0003 C.ar      1 <0>        -0.1296
      3 C3          0.0470   -0.6858   -1.2020 C.ar      1 <0>        -0.0776
      4 C4          0.0530   -2.0655   -1.2177 C.ar      1 <0>        -0.1334
      5 C5          0.0513   -2.7774   -0.0165 C.ar      1 <0>        -0.1027
      6 C6          0.0435   -2.0892    1.1966 C.ar      1 <0>        -0.1281
      7 C7          0.0432   -0.7025    1.2015 C.ar      1 <0>         0.2092
      8 N1          0.0411   -0.0082    2.4139 N.pl3     1 <0>        -0.8745
      9 C8          0.0573   -4.2556   -0.0305 C.2       1 <0>         0.5673
     10 O1          0.0559   -4.8734    1.0165 O.2       1 <0>        -0.5066
     11 N2          0.0644   -4.9184   -1.2040 N.am      1 <0>        -0.6626
     12 C9          0.1873   -6.3117   -1.2196 C.ar      1 <0>         0.2451
     13 C10         0.8074   -6.9674   -0.1636 C.ar      1 <0>        -0.1332
     14 C11         0.9269   -8.3430   -0.1814 C.ar      1 <0>        -0.0125
     15 C12         0.4296   -9.0682   -1.2500 C.ar      1 <0>        -0.1206
     16 C13        -0.1885   -8.4178   -2.3030 C.ar      1 <0>        -0.0033
     17 C14        -0.3155   -7.0425   -2.2880 C.ar      1 <0>        -0.0862
     18 N3         -0.9819   -6.3478   -3.4124 N.pl3     1 <0>         0.0473
     19 O2         -1.4981   -6.9886   -4.2982 O.2       1 <0>        -0.1305
     20 O3         -1.0101   -5.1395   -3.4450 O.3       1 <0>        -0.1839
     21 Br1         0.5957  -10.9518   -1.2710 Br        1 <0>        -0.0126
     22 H1          1.0587    1.8714    0.0095 H         1 <0>         0.0725
     23 H2         -0.4835    1.8694   -0.8792 H         1 <0>         0.0732
     24 H3         -0.4821    1.8598    0.9007 H         1 <0>         0.0630
     25 H4          0.0479   -0.1371   -2.1322 H         1 <0>         0.1335
     26 H5          0.0587   -2.5948   -2.1590 H         1 <0>         0.1275
     27 H6          0.0422   -2.6344    2.1288 H         1 <0>         0.1365
     28 H7          0.0369    0.9618    2.4173 H         1 <0>         0.4010
     29 H8          0.0439   -0.4961    3.2522 H         1 <0>         0.4010
     30 H9         -0.0157   -4.4292   -2.0378 H         1 <0>         0.4306
     31 H10         1.1960   -6.4019    0.6704 H         1 <0>         0.1774
     32 H11         1.4092   -8.8533    0.6391 H         1 <0>         0.1583
     33 H12        -0.5754   -8.9863   -3.1358 H         1 <0>         0.1680
@<TRIPOS>BOND
     1    1    2 1
     2    1   22 1
     3    1   23 1
     4    1   24 1
     5    2    7 ar
     6    2    3 ar
     7    3    4 ar
     8    3   25 1
     9    4    5 ar
    10    4   26 1
    11    5    6 ar
    12    5    9 1
    13    6    7 ar
    14    6   27 1
    15    7    8 1
    16    8   28 1
    17    8   29 1
    18    9   10 2
    19    9   11 am
    20   11   12 1
    21   11   30 1
    22   12   17 ar
    23   12   13 ar
    24   13   14 ar
    25   13   31 1
    26   14   15 ar
    27   14   32 1
    28   15   16 ar
    29   15   21 1
    30   16   17 ar
    31   16   33 1
    32   17   18 1
    33   18   19 2
    34   18   20 1
@<TRIPOS>MOLECULE
ZINC48930899
   33    34     0     0     0
SMALL
USER_CHARGES

@<TRIPOS>ATOM
      1 C1         -0.2057    1.4094    0.5866 C.3       1 <0>        -0.1144
      2 C2         -0.1454   -0.0928    0.4819 C.ar      1 <0>        -0.0963
      3 C3         -0.7332   -0.7336   -0.5936 C.ar      1 <0>        -0.0810
      4 C4         -0.6803   -2.1101   -0.6927 C.ar      1 <0>        -0.1205
      5 C5         -0.0355   -2.8514    0.2888 C.ar      1 <0>         0.1723
      6 C6          0.5546   -2.2049    1.3679 C.ar      1 <0>        -0.1216
      7 C7          0.5024   -0.8267    1.4582 C.ar      1 <0>        -0.0698
      8 Br1         1.4341   -3.2088    2.7076 Br        1 <0>        -0.0458
      9 N1          0.0195   -4.2458    0.1915 N.am      1 <0>        -0.6658
     10 C8         -0.0800   -4.8417   -1.0132 C.2       1 <0>         0.5719
     11 O1         -0.1101   -4.1671   -2.0246 O.2       1 <0>        -0.5069
     12 C9         -0.1524   -6.3120   -1.1050 C.ar      1 <0>        -0.2002
     13 C10        -0.1238   -7.0887    0.0573 C.ar      1 <0>         0.0104
     14 C11        -0.1919   -8.4600   -0.0317 C.ar      1 <0>        -0.2021
     15 C12        -0.2889   -9.0744   -1.2774 C.ar      1 <0>         0.3131
     16 C13        -0.3172   -8.3040   -2.4364 C.ar      1 <0>        -0.1389
     17 C14        -0.2556   -6.9315   -2.3538 C.ar      1 <0>         0.0586
     18 N2         -0.4193   -8.9612   -3.7588 N.pl3     1 <0>         0.0477
     19 O2          0.0058   -8.4053   -4.7446 O.2       1 <0>        -0.1393
     20 O3         -0.9279  -10.0540   -3.8530 O.3       1 <0>        -0.1849
     21 N3         -0.3571  -10.4606   -1.3639 N.pl3     1 <0>        -0.8351
     22 H1          0.6581    1.8437    0.0833 H         1 <0>         0.0741
     23 H2         -1.1201    1.7700    0.1153 H         1 <0>         0.0706
     24 H3         -0.1989    1.7009    1.6368 H         1 <0>         0.0691
     25 H4         -1.2346   -0.1568   -1.3567 H         1 <0>         0.1350
     26 H5         -1.1403   -2.6096   -1.5326 H         1 <0>         0.1555
     27 H6          0.9646   -0.3229    2.2943 H         1 <0>         0.1376
     28 H7          0.1291   -4.7838    0.9912 H         1 <0>         0.4115
     29 H8         -0.0478   -6.6128    1.0238 H         1 <0>         0.1434
     30 H9         -0.1698   -9.0606    0.8657 H         1 <0>         0.1551
     31 H10        -0.2825   -6.3341   -3.2531 H         1 <0>         0.1653
     32 H11        -0.4153  -10.9946   -0.5563 H         1 <0>         0.4129
     33 H12        -0.3466  -10.8934   -2.2319 H         1 <0>         0.4184
@<TRIPOS>BOND
     1    1    2 1
     2    1   22 1
     3    1   23 1
     4    1   24 1
     5    2    7 ar
     6    2    3 ar
     7    3    4 ar
     8    3   25 1
     9    4    5 ar
    10    4   26 1
    11    5    6 ar
    12    5    9 1
    13    6    7 ar
    14    6    8 1
    15    7   27 1
    16    9   10 am
    17    9   28 1
    18   10   11 2
    19   10   12 1
    20   12   17 ar
    21   12   13 ar
    22   13   14 ar
    23   13   29 1
    24   14   15 ar
    25   14   30 1
    26   15   16 ar
    27   15   21 1
    28   16   17 ar
    29   16   18 1
    30   17   31 1
    31   18   19 2
    32   18   20 1
    33   21   32 1
    34   21   33 1
@<TRIPOS>MOLECULE
ZINC13132295
   39    42     0     0     0
SMALL
USER_CHARGES

@<TRIPOS>ATOM
      1 C1         -0.0167    1.3780    0.0096 C.ar      1 <0>        -0.1140
      2 C2          1.1709    2.0861    0.0021 C.ar      1 <0>        -0.0971
      3 C3          2.3773    1.4123   -0.0135 C.ar      1 <0>        -0.1099
      4 C4          2.3967    0.0287   -0.0210 C.ar      1 <0>        -0.0148
      5 C5          1.2083   -0.6792   -0.0130 C.ar      1 <0>        -0.0817
      6 C6          0.0021   -0.0041    0.0020 C.ar      1 <0>        -0.0785
      7 C7          1.2286   -2.1860   -0.0218 C.3       1 <0>         0.2070
      8 H1          2.2603   -2.5373   -0.0342 H         1 <0>         0.1043
      9 C8          0.4947   -2.7027   -1.2654 C.3       1 <0>        -0.1413
     10 C9          0.2711   -4.2143   -1.1436 C.3       1 <0>         0.2027
     11 H2          1.2292   -4.7162   -1.0087 H         1 <0>         0.0901
     12 N1         -0.5912   -4.4700    0.0264 N.pl3     1 <0>        -0.7046
     13 C10        -0.2933   -3.7522    1.1771 C.2       1 <0>         0.5477
     14 N2          0.5527   -2.6922    1.1726 N.pl3     1 <0>        -0.4061
     15 N3          0.6197   -2.2261    2.4862 N.2       1 <0>        -0.3590
     16 C11        -0.1635   -3.0006    3.2036 C.2       1 <0>         0.4875
     17 N4         -0.7203   -3.9258    2.3995 N.2       1 <0>        -0.5968
     18 N5         -0.3855   -2.8799    4.5762 N.pl3     1 <0>        -0.8248
     19 C12        -0.3982   -4.7289   -2.3919 C.ar      1 <0>        -0.1115
     20 C13        -1.7614   -4.5718   -2.5596 C.ar      1 <0>        -0.0744
     21 C14        -2.3762   -5.0429   -3.7042 C.ar      1 <0>        -0.1506
     22 C15        -1.6263   -5.6724   -4.6831 C.ar      1 <0>         0.1086
     23 C16        -0.2610   -5.8292   -4.5141 C.ar      1 <0>        -0.1502
     24 C17         0.3524   -5.3526   -3.3711 C.ar      1 <0>        -0.0707
     25 F1         -2.2263   -6.1337   -5.8022 F         1 <0>        -0.1357
     26 Cl1         3.9119   -0.8184   -0.0411 Cl        1 <0>        -0.0618
     27 H3         -0.9592    1.9049    0.0259 H         1 <0>         0.1308
     28 H4          1.1556    3.1659    0.0080 H         1 <0>         0.1349
     29 H5          3.3048    1.9655   -0.0201 H         1 <0>         0.1371
     30 H6         -0.9258   -0.5566    0.0079 H         1 <0>         0.1244
     31 H7         -0.4683   -2.1996   -1.3533 H         1 <0>         0.0901
     32 H8          1.0936   -2.4950   -2.1522 H         1 <0>         0.1115
     33 H9         -1.3249   -5.1035   -0.0067 H         1 <0>         0.4262
     34 H10         0.0567   -2.1783    5.0791 H         1 <0>         0.4132
     35 H11        -0.9821   -3.4976    5.0272 H         1 <0>         0.4131
     36 H12        -2.3462   -4.0810   -1.7957 H         1 <0>         0.1354
     37 H13        -3.4413   -4.9203   -3.8348 H         1 <0>         0.1395
     38 H14         0.3249   -6.3203   -5.2769 H         1 <0>         0.1408
     39 H15         1.4180   -5.4708   -3.2410 H         1 <0>         0.1385
@<TRIPOS>BOND
     1    1    6 ar
     2    1    2 ar
     3    1   27 1
     4    2    3 ar
     5    2   28 1
     6    3    4 ar
     7    3   29 1
     8    4    5 ar
     9    4   26 1
    10    5    6 ar
    11    5    7 1
    12    6   30 1
    13    7    8 1
    14    7   14 1
    15    7    9 1
    16    9   10 1
    17    9   31 1
    18    9   32 1
    19   10   11 1
    20   10   12 1
    21   10   19 1
    22   12   13 1
    23   12   33 1
    24   13   17 2
    25   13   14 1
    26   14   15 1
    27   15   16 2
    28   16   17 1
    29   16   18 1
    30   18   34 1
    31   18   35 1
    32   19   24 ar
    33   19   20 ar
    34   20   21 ar
    35   20   36 1
    36   21   22 ar
    37   21   37 1
    38   22   23 ar
    39   22   25 1
    40   23   24 ar
    41   23   38 1
    42   24   39 1
@<TRIPOS>MOLECULE
ZINC14667354
   44    45     0     0     0
SMALL
USER_CHARGES
5-bromo-2-isobutoxy-N-[(thiophene-2-carbonylamino)carbamothioyl]benzamide
@<TRIPOS>ATOM
      1 C1          3.6804   -2.3915    0.0779 C.3       1 <0>        -0.1470
      2 C2          3.7340   -0.8669   -0.0396 C.3       1 <0>        -0.0925
      3 C3          4.4198   -0.4804   -1.3515 C.3       1 <0>        -0.1493
      4 C4          2.3115   -0.3037   -0.0226 C.3       1 <0>         0.0538
      5 O1          2.3646    1.1242   -0.0149 O.3       1 <0>        -0.2700
      6 C5          1.1796    1.7846    0.0004 C.ar      1 <0>         0.2155
      7 C6         -0.0126    1.0758    0.0080 C.ar      1 <0>        -0.2093
      8 C7         -1.2180    1.7487    0.0173 C.ar      1 <0>        -0.0147
      9 C8         -1.2473    3.1347    0.0308 C.ar      1 <0>        -0.1389
     10 C9         -0.0720    3.8550    0.0234 C.ar      1 <0>        -0.0229
     11 C10         1.1549    3.1860    0.0081 C.ar      1 <0>        -0.1723
     12 C11         2.4160    3.9500   -0.0003 C.2       1 <0>         0.5384
     13 O2          3.4813    3.3645   -0.0140 O.2       1 <0>        -0.3741
     14 N1          2.3877    5.2975    0.0072 N.am      1 <0>        -0.6462
     15 C12         3.5404    5.9958   -0.0005 C.2       1 <0>         0.5167
     16 S1          5.0407    5.1712   -0.0198 S.2       1 <0>        -0.4470
     17 N2          3.5121    7.3432    0.0070 N.pl3     1 <0>        -0.4542
     18 N3          2.2844    8.0180    0.0228 N.am      1 <0>        -0.5495
     19 C13         2.2561    9.3654    0.0304 C.2       1 <0>         0.6183
     20 O3          3.2970    9.9960    0.0234 O.2       1 <0>        -0.5018
     21 C14         0.9716   10.0714    0.0469 C.2       1 <0>        -0.2540
     22 C15         0.7244   11.4352    0.0623 C.2       1 <0>        -0.0461
     23 C16        -0.5896   11.8323    0.0715 C.2       1 <0>        -0.1803
     24 C17        -1.5676   10.8889    0.0767 C.2       1 <0>        -0.1599
     25 S2         -0.6809    9.3993    0.0603 S.3       1 <0>         0.1392
     26 Br1        -2.9069    4.0410    0.0515 Br        1 <0>        -0.0363
     27 H1          3.1174   -2.8010   -0.7608 H         1 <0>         0.0578
     28 H2          4.6938   -2.7927    0.0658 H         1 <0>         0.0672
     29 H3          3.1918   -2.6668    1.0126 H         1 <0>         0.0575
     30 H4          4.2970   -0.4574    0.7991 H         1 <0>         0.0855
     31 H5          5.4332   -0.8816   -1.3637 H         1 <0>         0.0581
     32 H6          3.8568   -0.8899   -2.1902 H         1 <0>         0.0514
     33 H7          4.4580    0.6057   -1.4353 H         1 <0>         0.0693
     34 H8          1.7932   -0.6528    0.8705 H         1 <0>         0.0679
     35 H9          1.7759   -0.6427   -0.9093 H         1 <0>         0.0683
     36 H10         0.0021   -0.0041    0.0020 H         1 <0>         0.1492
     37 H11        -2.1435    1.1921    0.0183 H         1 <0>         0.1451
     38 H12        -0.0993    4.9347    0.0291 H         1 <0>         0.1338
     39 H13         1.5377    5.7647    0.0182 H         1 <0>         0.3982
     40 H14         4.3418    7.8458    0.0015 H         1 <0>         0.4597
     41 H15         1.4548    7.5154    0.0284 H         1 <0>         0.4166
     42 H16         1.5304   12.1541    0.0635 H         1 <0>         0.1535
     43 H17        -0.8430   12.8821    0.0796 H         1 <0>         0.1485
     44 H18        -2.6380   11.0324    0.0888 H         1 <0>         0.1968
@<TRIPOS>BOND
     1    1    2 1
     2    1   27 1
     3    1   28 1
     4    1   29 1
     5    2    3 1
     6    2    4 1
     7    2   30 1
     8    3   31 1
     9    3   32 1
    10    3   33 1
    11    4    5 1
    12    4   34 1
    13    4   35 1
    14    5    6 1
    15    6   11 ar
    16    6    7 ar
    17    7    8 ar
    18    7   36 1
    19    8    9 ar
    20    8   37 1
    21    9   10 ar
    22    9   26 1
    23   10   11 ar
    24   10   38 1
    25   11   12 1
    26   12   13 2
    27   12   14 am
    28   14   15 1
    29   14   39 1
    30   15   16 2
    31   15   17 1
    32   17   18 1
    33   17   40 1
    34   18   19 am
    35   18   41 1
    36   19   20 2
    37   19   21 1
    38   21   25 1
    39   21   22 2
    40   22   23 1
    41   22   42 1
    42   23   24 2
    43   23   43 1
    44   24   25 1
    45   24   44 1
@<TRIPOS>MOLECULE
ZINC22471945
   53    55     0     0     0
SMALL
USER_CHARGES
3-[[2-[(2-phenylacetyl)amino]acetyl]amino]-N-[3-(trifluoromethyl)phenyl]benzamide
@<TRIPOS>ATOM
      1 C1         12.6343   12.2513   -1.8028 C.ar      1 <0>        -0.1192
      2 C2         12.4368   11.2851   -0.8341 C.ar      1 <0>        -0.1189
      3 C3         11.2874   10.5173   -0.8479 C.ar      1 <0>        -0.1055
      4 C4         10.3356   10.7153   -1.8307 C.ar      1 <0>        -0.0690
      5 C5         10.5357   11.6776   -2.8028 C.ar      1 <0>        -0.1058
      6 C6         11.6827   12.4490   -2.7859 C.ar      1 <0>        -0.1191
      7 C7          9.0828    9.8780   -1.8460 C.3       1 <0>        -0.1022
      8 C8          8.0147   10.5571   -1.0281 C.2       1 <0>         0.5204
      9 O1          8.2478   11.6167   -0.4861 O.2       1 <0>        -0.5334
     10 N1          6.8003    9.9869   -0.8989 N.am      1 <0>        -0.7365
     11 C9          5.7620   10.6471   -0.1038 C.3       1 <0>         0.1055
     12 C10         4.5091    9.8097   -0.1191 C.2       1 <0>         0.5126
     13 O2          4.4859    8.7643   -0.7337 O.2       1 <0>        -0.5143
     14 N2          3.4145   10.2224    0.5502 N.am      1 <0>        -0.6834
     15 C11         2.2222    9.4953    0.4578 C.ar      1 <0>         0.1427
     16 C12         1.0013   10.1595    0.4598 C.ar      1 <0>        -0.1137
     17 C13        -0.1790    9.4461    0.3687 C.ar      1 <0>        -0.1048
     18 C14        -0.1533    8.0693    0.2757 C.ar      1 <0>        -0.0996
     19 C15         1.0678    7.3928    0.2728 C.ar      1 <0>        -0.1183
     20 C16         2.2589    8.1127    0.3696 C.ar      1 <0>        -0.0611
     21 C17         1.0984    5.9182    0.1738 C.2       1 <0>         0.5616
     22 O3          2.1628    5.3311    0.1715 O.2       1 <0>        -0.5084
     23 N3         -0.0539    5.2246    0.0860 N.am      1 <0>        -0.6827
     24 C18        -0.0312    3.8264    0.0997 C.ar      1 <0>         0.1546
     25 C19        -0.9660    3.1078   -0.6348 C.ar      1 <0>        -0.1149
     26 C20        -0.9411    1.7273   -0.6187 C.ar      1 <0>        -0.0978
     27 C21         0.0132    1.0599    0.1276 C.ar      1 <0>        -0.0902
     28 C22         0.9417    1.7721    0.8639 C.ar      1 <0>        -0.1616
     29 C23         0.9256    3.1533    0.8480 C.ar      1 <0>        -0.0759
     30 C24         1.9761    1.0408    1.6802 C.3       1 <0>         0.5089
     31 F1          1.7956   -0.3387    1.5338 F         1 <0>        -0.1760
     32 F2          3.2551    1.3935    1.2364 F         1 <0>        -0.1726
     33 F3          1.8378    1.3888    3.0281 F         1 <0>        -0.1762
     34 H1         13.5321   12.8514   -1.7918 H         1 <0>         0.1215
     35 H2         13.1804   11.1304   -0.0663 H         1 <0>         0.1222
     36 H3         11.1331    9.7624   -0.0911 H         1 <0>         0.1194
     37 H4          9.7942   11.8294   -3.5731 H         1 <0>         0.1191
     38 H5         11.8372   13.2036   -3.5429 H         1 <0>         0.1221
     39 H6          8.7325    9.7613   -2.8822 H         1 <0>         0.1064
     40 H7          9.2983    8.8878   -1.4181 H         1 <0>         0.1068
     41 H8          6.5888    9.0258   -1.3905 H         1 <0>         0.4373
     42 H9          6.1124   10.7639    0.9323 H         1 <0>         0.1018
     43 H10         5.5465   11.6373   -0.5317 H         1 <0>         0.1020
     44 H11         3.4582   11.1307    1.1691 H         1 <0>         0.4429
     45 H12         0.9747   11.2367    0.5331 H         1 <0>         0.1345
     46 H13        -1.1247    9.9678    0.3708 H         1 <0>         0.1372
     47 H14        -1.0777    7.5154    0.2054 H         1 <0>         0.1282
     48 H15         3.2064    7.5945    0.3720 H         1 <0>         0.1534
     49 H16        -1.0122    5.7583    0.0036 H         1 <0>         0.4366
     50 H17        -1.7112    3.6283   -1.2180 H         1 <0>         0.1370
     51 H18        -1.6678    1.1680   -1.1893 H         1 <0>         0.1410
     52 H19         0.0303   -0.0199    0.1387 H         1 <0>         0.1409
     53 H20         1.6536    3.7090    1.4204 H         1 <0>         0.1445
@<TRIPOS>BOND
     1    1    6 ar
     2    1    2 ar
     3    1   34 1
     4    2    3 ar
     5    2   35 1
     6    3    4 ar
     7    3   36 1
     8    4    5 ar
     9    4    7 1
    10    5    6 ar
    11    5   37 1
    12    6   38 1
    13    7    8 1
    14    7   39 1
    15    7   40 1
    16    8    9 2
    17    8   10 am
    18   10   11 1
    19   10   41 1
    20   11   12 1
    21   11   42 1
    22   11   43 1
    23   12   13 2
    24   12   14 am
    25   14   15 1
    26   14   44 1
    27   15   20 ar
    28   15   16 ar
    29   16   17 ar
    30   16   45 1
    31   17   18 ar
    32   17   46 1
    33   18   19 ar
    34   18   47 1
    35   19   20 ar
    36   19   21 1
    37   20   48 1
    38   21   22 2
    39   21   23 am
    40   23   24 1
    41   23   49 1
    42   24   29 ar
    43   24   25 ar
    44   25   26 ar
    45   25   50 1
    46   26   27 ar
    47   26   51 1
    48   27   28 ar
    49   27   52 1
    50   28   29 ar
    51   28   30 1
    52   29   53 1
    53   30   31 1
    54   30   32 1
    55   30   33 1
@<TRIPOS>MOLECULE
ZINC41006390
   62    65     0     0     0
SMALL
USER_CHARGES

@<TRIPOS>ATOM
      1 C1         -0.2151    2.5707    0.5712 C.3       1 <0>        -0.1159
      2 C2          0.4685    1.2476    0.3407 C.ar      1 <0>        -0.1129
      3 C3          0.6363    0.7708   -0.9448 C.ar      1 <0>        -0.1035
      4 C4          1.2634   -0.4430   -1.1571 C.ar      1 <0>        -0.1316
      5 C5          1.7249   -1.1833   -0.0839 C.ar      1 <0>        -0.1081
      6 C6          1.5606   -0.7120    1.2036 C.ar      1 <0>        -0.1170
      7 C7          0.9354    0.5093    1.4200 C.ar      1 <0>         0.1466
      8 N1          0.7721    0.9922    2.7231 N.am      1 <0>        -0.6593
      9 C8          0.5629    0.1320    3.7393 C.2       1 <0>         0.5307
     10 O1          0.6016   -1.0637    3.5394 O.2       1 <0>        -0.5029
     11 C9          0.2808    0.6557    5.1239 C.3       1 <0>        -0.1642
     12 H1         -0.6223    1.2658    5.1076 H         1 <0>         0.1559
     13 C10         0.0911   -0.5187    6.0897 C.3       1 <0>         0.0496
     14 H2          0.9572   -1.1781    6.0347 H         1 <0>         0.1282
     15 C11        -0.0543    0.0146    7.5159 C.3       1 <0>        -0.0947
     16 H3         -0.2549   -0.8148    8.1941 H         1 <0>         0.1152
     17 C12         1.2358    0.7181    7.9405 C.3       1 <0>         0.1544
     18 C13         1.4685    1.9390    7.0444 C.3       1 <0>        -0.2013
     19 C14         1.4493    1.4905    5.5992 C.2       1 <0>         0.3898
     20 O2          2.3455    1.7870    4.8460 O.2       1 <0>        -0.4396
     21 C15         1.1149    1.1699    9.3973 C.3       1 <0>        -0.1840
     22 O3          2.3358   -0.1848    7.8110 O.3       1 <0>        -0.5495
     23 C16        -1.1984    0.9939    7.5702 C.2       1 <0>         0.5248
     24 O4         -1.2009    1.9646    6.8431 O.2       1 <0>        -0.5107
     25 N2         -2.2190    0.7911    8.4269 N.am      1 <0>        -0.6504
     26 C17        -3.3278    1.6444    8.4087 C.ar      1 <0>         0.1484
     27 C18        -3.5807    2.4332    7.2938 C.ar      1 <0>        -0.1309
     28 C19        -4.6758    3.2744    7.2790 C.ar      1 <0>        -0.1050
     29 C20        -5.5200    3.3322    8.3729 C.ar      1 <0>        -0.1336
     30 C21        -5.2708    2.5486    9.4844 C.ar      1 <0>        -0.0998
     31 C22        -4.1808    1.7002    9.5029 C.ar      1 <0>        -0.1174
     32 C23        -3.9139    0.8412   10.7119 C.3       1 <0>        -0.1134
     33 C24        -1.1495   -1.2858    5.7106 C.2       1 <0>        -0.1553
     34 C25        -1.2720   -2.5868    5.3508 C.2       1 <0>        -0.1163
     35 C26        -2.5251   -3.0819    5.0423 C.2       1 <0>        -0.1557
     36 C27        -3.5945   -2.2517    5.1088 C.2       1 <0>        -0.1702
     37 S1         -2.8402   -0.7187    5.6267 S.3       1 <0>         0.0324
     38 H4          0.5267    3.3693    0.5627 H         1 <0>         0.0715
     39 H5         -0.9455    2.7448   -0.2189 H         1 <0>         0.0721
     40 H6         -0.7210    2.5551    1.5366 H         1 <0>         0.0618
     41 H7          0.2770    1.3465   -1.7849 H         1 <0>         0.1252
     42 H8          1.3928   -0.8140   -2.1631 H         1 <0>         0.1226
     43 H9          2.2140   -2.1313   -0.2530 H         1 <0>         0.1242
     44 H10         1.9210   -1.2907    2.0413 H         1 <0>         0.1401
     45 H11         0.8094    1.9461    2.8950 H         1 <0>         0.4106
     46 H12         0.6766    2.6698    7.2084 H         1 <0>         0.1333
     47 H13         2.4357    2.3847    7.2769 H         1 <0>         0.1016
     48 H14         0.8589    0.3148   10.0229 H         1 <0>         0.0750
     49 H15         2.0649    1.5901    9.7274 H         1 <0>         0.0747
     50 H16         0.3347    1.9266    9.4794 H         1 <0>         0.0708
     51 H17         3.1883    0.1951    8.0638 H         1 <0>         0.3890
     52 H18        -2.1848    0.0536    9.0560 H         1 <0>         0.4120
     53 H19        -2.9214    2.3891    6.4395 H         1 <0>         0.1552
     54 H20        -4.8730    3.8880    6.4124 H         1 <0>         0.1239
     55 H21        -6.3756    3.9911    8.3590 H         1 <0>         0.1219
     56 H22        -5.9317    2.5963   10.3372 H         1 <0>         0.1249
     57 H23        -3.2780    1.3847   11.4107 H         1 <0>         0.0725
     58 H24        -4.8580    0.5933   11.1971 H         1 <0>         0.0727
     59 H25        -3.4127   -0.0760   10.4025 H         1 <0>         0.0586
     60 H26        -0.4034   -3.2270    5.3054 H         1 <0>         0.1348
     61 H27        -2.6503   -4.1147    4.7523 H         1 <0>         0.1340
     62 H28        -4.6338   -2.4636    4.9053 H         1 <0>         0.1839
@<TRIPOS>BOND
     1    1    2 1
     2    1   38 1
     3    1   39 1
     4    1   40 1
     5    2    7 ar
     6    2    3 ar
     7    3    4 ar
     8    3   41 1
     9    4    5 ar
    10    4   42 1
    11    5    6 ar
    12    5   43 1
    13    6    7 ar
    14    6   44 1
    15    7    8 1
    16    8    9 am
    17    8   45 1
    18    9   10 2
    19    9   11 1
    20   11   12 1
    21   11   19 1
    22   11   13 1
    23   13   14 1
    24   13   15 1
    25   13   33 1
    26   15   16 1
    27   15   17 1
    28   15   23 1
    29   17   18 1
    30   17   21 1
    31   17   22 1
    32   18   19 1
    33   18   46 1
    34   18   47 1
    35   19   20 2
    36   21   48 1
    37   21   49 1
    38   21   50 1
    39   22   51 1
    40   23   24 2
    41   23   25 am
    42   25   26 1
    43   25   52 1
    44   26   31 ar
    45   26   27 ar
    46   27   28 ar
    47   27   53 1
    48   28   29 ar
    49   28   54 1
    50   29   30 ar
    51   29   55 1
    52   30   31 ar
    53   30   56 1
    54   31   32 1
    55   32   57 1
    56   32   58 1
    57   32   59 1
    58   33   37 1
    59   33   34 2
    60   34   35 1
    61   34   60 1
    62   35   36 2
    63   35   61 1
    64   36   37 1
    65   36   62 1
@<TRIPOS>MOLECULE
ZINC58867739
   53    56     0     0     0
SMALL
USER_CHARGES

@<TRIPOS>ATOM
      1 C1          1.7501    1.4541    3.0578 C.ar      1 <0>        -0.0868
      2 C2          2.3576    2.1460    2.0251 C.ar      1 <0>        -0.1361
      3 C3          2.9894    1.4596    1.0087 C.ar      1 <0>        -0.0630
      4 C4          3.0153    0.0645    1.0241 C.ar      1 <0>        -0.1487
      5 C5          2.4011   -0.6274    2.0688 C.ar      1 <0>        -0.0566
      6 C6          1.7722    0.0708    3.0789 C.ar      1 <0>        -0.1366
      7 C7          3.6909   -0.6784   -0.0634 C.2       1 <0>         0.5416
      8 O1          4.2255   -0.0723   -0.9736 O.2       1 <0>        -0.5184
      9 N1          3.7142   -2.0241   -0.0457 N.2       1 <0>        -0.6174
     10 C8          4.8556   -2.6619   -0.1534 C.2       1 <0>         0.4925
     11 C9          4.8712   -4.1644   -0.2683 C.3       1 <0>        -0.1128
     12 H1          5.7325   -4.5827    0.2526 H         1 <0>         0.1486
     13 C10         4.8582   -4.6036   -1.7526 C.3       1 <0>         0.1018
     14 H2          5.8608   -4.8668   -2.0899 H         1 <0>         0.1315
     15 N2          3.9833   -5.7983   -1.7093 N.3       1 <0>        -0.4249
     16 N3          3.1425   -5.6622   -0.6448 N.am      1 <0>        -0.4086
     17 C11         3.5787   -4.7603    0.2598 C.2       1 <0>         0.5315
     18 O2          3.0358   -4.4736    1.3058 O.2       1 <0>        -0.4616
     19 C12         1.9529   -6.3850   -0.5022 C.ar      1 <0>         0.1722
     20 C13         1.8082   -7.6170   -1.1265 C.ar      1 <0>        -0.1339
     21 C14         0.6327   -8.3279   -0.9838 C.ar      1 <0>        -0.0976
     22 C15        -0.3996   -7.8140   -0.2208 C.ar      1 <0>        -0.1343
     23 C16        -0.2589   -6.5873    0.4017 C.ar      1 <0>        -0.0945
     24 C17         0.9166   -5.8744    0.2685 C.ar      1 <0>        -0.1318
     25 C18         4.2538   -3.5139   -2.6402 C.3       1 <0>        -0.1077
     26 S1          4.2582   -4.0692   -4.3671 S.3       1 <0>        -0.0672
     27 C19         3.5414   -2.7230   -5.2496 C.ar      1 <0>        -0.0855
     28 C20         3.1384   -1.5803   -4.5693 C.ar      1 <0>        -0.1160
     29 C21         2.5770   -0.5270   -5.2636 C.ar      1 <0>        -0.0867
     30 C22         2.4155   -0.6086   -6.6357 C.ar      1 <0>        -0.0401
     31 C23         2.8158   -1.7453   -7.3161 C.ar      1 <0>        -0.0913
     32 C24         3.3832   -2.7996   -6.6280 C.ar      1 <0>        -0.0880
     33 Cl1         1.7087    0.7175   -7.5050 Cl        1 <0>        -0.0668
     34 N4          6.0163   -1.9721   -0.1611 N.pl3     1 <0>        -0.8395
     35 H3          1.2604    1.9962    3.8533 H         1 <0>         0.1274
     36 H4          2.3369    3.2258    2.0143 H         1 <0>         0.1293
     37 H5          3.4626    2.0008    0.2028 H         1 <0>         0.1320
     38 H6          2.4174   -1.7071    2.0862 H         1 <0>         0.1397
     39 H7          1.2964   -0.4634    3.8879 H         1 <0>         0.1289
     40 H8          4.5291   -6.6436   -1.6333 H         1 <0>         0.3542
     41 H9          2.6138   -8.0186   -1.7232 H         1 <0>         0.1280
     42 H10         0.5196   -9.2861   -1.4691 H         1 <0>         0.1281
     43 H11        -1.3180   -8.3717   -0.1111 H         1 <0>         0.1248
     44 H12        -1.0673   -6.1882    0.9964 H         1 <0>         0.1281
     45 H13         1.0277   -4.9186    0.7588 H         1 <0>         0.1392
     46 H14         3.2295   -3.3152   -2.3251 H         1 <0>         0.1047
     47 H15         4.8449   -2.6025   -2.5501 H         1 <0>         0.1013
     48 H16         3.2639   -1.5163   -3.4985 H         1 <0>         0.1303
     49 H17         2.2633    0.3612   -4.7353 H         1 <0>         0.1353
     50 H18         2.6882   -1.8062   -8.3868 H         1 <0>         0.1397
     51 H19         3.6999   -3.6845   -7.1601 H         1 <0>         0.1384
     52 H20         6.0122   -1.0141   -0.0091 H         1 <0>         0.4143
     53 H21         6.8543   -2.4345   -0.3188 H         1 <0>         0.4089
@<TRIPOS>BOND
     1    1    6 ar
     2    1    2 ar
     3    1   35 1
     4    2    3 ar
     5    2   36 1
     6    3    4 ar
     7    3   37 1
     8    4    5 ar
     9    4    7 1
    10    5    6 ar
    11    5   38 1
    12    6   39 1
    13    7    8 2
    14    7    9 1
    15    9   10 2
    16   10   11 1
    17   10   34 1
    18   11   12 1
    19   11   17 1
    20   11   13 1
    21   13   14 1
    22   13   15 1
    23   13   25 1
    24   15   16 1
    25   15   40 1
    26   16   17 am
    27   16   19 1
    28   17   18 2
    29   19   24 ar
    30   19   20 ar
    31   20   21 ar
    32   20   41 1
    33   21   22 ar
    34   21   42 1
    35   22   23 ar
    36   22   43 1
    37   23   24 ar
    38   23   44 1
    39   24   45 1
    40   25   26 1
    41   25   46 1
    42   25   47 1
    43   26   27 1
    44   27   32 ar
    45   27   28 ar
    46   28   29 ar
    47   28   48 1
    48   29   30 ar
    49   29   49 1
    50   30   31 ar
    51   30   33 1
    52   31   32 ar
    53   31   50 1
    54   32   51 1
    55   34   52 1
    56   34   53 1
@<TRIPOS>MOLECULE
ZINC60204830
   41    43     0     0     0
SMALL
USER_CHARGES

@<TRIPOS>ATOM
      1 C1          0.0085    1.4532    0.0253 C.3       1 <0>         0.0220
      2 O1          0.0280    0.0244    0.0267 O.3       1 <0>        -0.3011
      3 C2          0.6234   -0.5863   -1.0334 C.ar      1 <0>         0.0829
      4 C3          1.1776    0.1735   -2.0426 C.ar      1 <0>        -0.1213
      5 C4          1.7902   -0.4541   -3.1325 C.ar      1 <0>        -0.1758
      6 C5          1.8372   -1.8560   -3.1928 C.ar      1 <0>         0.2246
      7 C6          1.2768   -2.6090   -2.1726 C.ar      1 <0>        -0.1917
      8 C7          0.6766   -1.9795   -1.0940 C.ar      1 <0>         0.1600
      9 O2          0.1335   -2.7212   -0.0945 O.3       1 <0>        -0.2954
     10 C8          0.2226   -4.1420   -0.2190 C.3       1 <0>         0.0206
     11 N1          2.4452   -2.4886   -4.2752 N.am      1 <0>        -0.6494
     12 C9          1.9496   -3.6522   -4.7408 C.2       1 <0>         0.6010
     13 O3          0.9169   -4.1017   -4.2799 O.2       1 <0>        -0.4832
     14 C10         2.6551   -4.3771   -5.8035 C.2       1 <0>        -0.1950
     15 C11         2.3123   -5.5512   -6.4014 C.2       1 <0>         0.0240
     16 C12         3.1306   -6.0879   -7.4126 C.ar      1 <0>        -0.0985
     17 C13         4.2816   -5.3275   -7.7287 C.ar      1 <0>        -0.0838
     18 S1          4.1694   -3.9329   -6.6361 S.3       1 <0>         0.1573
     19 C14         5.1796   -5.7221   -8.6967 C.ar      1 <0>        -0.0654
     20 C15         4.9615   -6.8975   -9.3899 C.ar      1 <0>         0.0147
     21 C16         3.8390   -7.6647   -9.1002 C.ar      1 <0>        -0.1085
     22 C17         2.9449   -7.2874   -8.1485 C.ar      1 <0>         0.0361
     23 Cl1         1.5604   -8.2847   -7.8285 Cl        1 <0>        -0.0281
     24 Cl2         6.0805   -7.4118  -10.6134 Cl        1 <0>        -0.0287
     25 Cl3         0.8689   -6.3851   -5.9166 Cl        1 <0>        -0.0013
     26 C18         2.3829    0.3525   -4.2126 C.2       1 <0>         0.5766
     27 O4          2.9938   -0.1914   -5.1127 O.2       1 <0>        -0.5473
     28 N2          2.2485    1.6936   -4.2036 N.am      1 <0>        -0.8458
     29 H1          1.0310    1.8305    0.0063 H         1 <0>         0.0563
     30 H2         -0.5263    1.8084   -0.8555 H         1 <0>         0.0563
     31 H3         -0.4939    1.8106    0.9242 H         1 <0>         0.1048
     32 H4          1.1384    1.2516   -1.9915 H         1 <0>         0.1444
     33 H5          1.3113   -3.6875   -2.2168 H         1 <0>         0.1584
     34 H6         -0.2863   -4.4595   -1.1291 H         1 <0>         0.0647
     35 H7          1.2706   -4.4375   -0.2667 H         1 <0>         0.0583
     36 H8         -0.2487   -4.6125    0.6439 H         1 <0>         0.1061
     37 H9          3.2250   -2.0916   -4.6936 H         1 <0>         0.4263
     38 H10         6.0476   -5.1167   -8.9123 H         1 <0>         0.1580
     39 H11         3.6732   -8.5825   -9.6448 H         1 <0>         0.1569
     40 H12         1.7613    2.1274   -3.4858 H         1 <0>         0.4012
     41 H13         2.6389    2.2249   -4.9151 H         1 <0>         0.4087
@<TRIPOS>BOND
     1    1    2 1
     2    1   29 1
     3    1   30 1
     4    1   31 1
     5    2    3 1
     6    3    8 ar
     7    3    4 ar
     8    4    5 ar
     9    4   32 1
    10    5    6 ar
    11    5   26 1
    12    6    7 ar
    13    6   11 1
    14    7    8 ar
    15    7   33 1
    16    8    9 1
    17    9   10 1
    18   10   34 1
    19   10   35 1
    20   10   36 1
    21   11   12 am
    22   11   37 1
    23   12   13 2
    24   12   14 1
    25   14   18 1
    26   14   15 2
    27   15   16 1
    28   15   25 1
    29   16   22 ar
    30   16   17 ar
    31   17   18 1
    32   17   19 ar
    33   19   20 ar
    34   19   38 1
    35   20   21 ar
    36   20   24 1
    37   21   22 ar
    38   21   39 1
    39   22   23 1
    40   26   27 2
    41   26   28 am
    42   28   40 1
    43   28   41 1
@<TRIPOS>MOLECULE
ZINC39600880
   64    66     0     0     0
SMALL
USER_CHARGES

@<TRIPOS>ATOM
      1 C1         -0.6266    1.1891    2.1486 C.3       1 <0>        -0.1550
      2 C2         -0.6422   -0.3406    2.1205 C.3       1 <0>        -0.1257
      3 C3         -1.7606   -0.8223    1.1942 C.3       1 <0>        -0.1207
      4 C4         -1.7762   -2.3520    1.1662 C.3       1 <0>        -0.1040
      5 C5         -2.8945   -2.8337    0.2399 C.3       1 <0>        -0.1061
      6 H1         -3.8414   -2.3951    0.5548 H         1 <0>         0.0924
      7 C6         -2.5869   -2.4057   -1.1965 C.3       1 <0>        -0.1428
      8 C7         -2.9900   -4.3362    0.3068 C.2       1 <0>         0.5465
      9 O1         -1.9968   -4.9979    0.5228 O.2       1 <0>        -0.5274
     10 N1         -4.1790   -4.9446    0.1266 N.am      1 <0>        -0.6252
     11 C8         -5.4694   -4.3224   -0.2526 C.3       1 <0>         0.1098
     12 C9         -6.1137   -5.3269   -1.2340 C.3       1 <0>        -0.1128
     13 H2         -5.8873   -5.0499   -2.2637 H         1 <0>         0.1119
     14 C10        -5.4694   -6.6802   -0.8896 C.3       1 <0>        -0.0716
     15 C11        -4.4900   -6.3884    0.2567 C.3       1 <0>         0.1062
     16 C12        -6.5353   -7.6727   -0.4354 C.3       1 <0>        -0.1478
     17 C13        -5.8785   -9.0271   -0.1545 C.3       1 <0>        -0.0073
     18 N2         -5.2153   -9.5132   -1.3704 N.4       1 <0>        -0.5046
     19 C14        -4.1298   -8.5999   -1.7478 C.3       1 <0>        -0.0109
     20 C15        -4.7128   -7.2274   -2.0962 C.3       1 <0>        -0.1339
     21 C16        -7.6047   -5.3840   -1.0228 C.2       1 <0>         0.5216
     22 O2         -8.0709   -5.1589    0.0740 O.2       1 <0>        -0.5170
     23 N3         -8.4202   -5.6853   -2.0528 N.am      1 <0>        -0.7241
     24 C17        -9.8697   -5.7408   -1.8474 C.3       1 <0>         0.1630
     25 C18       -10.5477   -6.0955   -3.1457 C.ar      1 <0>        -0.1444
     26 C19       -11.1208   -5.1040   -3.9196 C.ar      1 <0>        -0.0417
     27 C20       -11.7431   -5.4293   -5.1111 C.ar      1 <0>        -0.1029
     28 C21       -11.7924   -6.7472   -5.5293 C.ar      1 <0>        -0.0484
     29 C22       -11.2199   -7.7393   -4.7567 C.ar      1 <0>        -0.1460
     30 C23       -10.5916   -7.4137   -3.5663 C.ar      1 <0>         0.1262
     31 F1        -10.0267   -8.3826   -2.8131 F         1 <0>        -0.1347
     32 Br1       -12.5275   -4.0722   -6.1689 Br        1 <0>        -0.0219
     33 H3          0.1701    1.5323    2.8085 H         1 <0>         0.0561
     34 H4         -0.4535    1.5692    1.1417 H         1 <0>         0.0543
     35 H5         -1.5854    1.5556    2.5154 H         1 <0>         0.0540
     36 H6          0.3165   -0.7070    1.7537 H         1 <0>         0.0626
     37 H7         -0.8154   -0.7206    3.1274 H         1 <0>         0.0615
     38 H8         -2.7194   -0.4558    1.5610 H         1 <0>         0.0629
     39 H9         -1.5874   -0.4422    0.1874 H         1 <0>         0.0666
     40 H10        -0.8174   -2.7184    0.7994 H         1 <0>         0.0760
     41 H11        -1.9493   -2.7320    2.1730 H         1 <0>         0.0656
     42 H12        -2.6352   -1.3193   -1.2701 H         1 <0>         0.0766
     43 H13        -1.5877   -2.7444   -1.4704 H         1 <0>         0.0665
     44 H14        -3.3186   -2.8486   -1.8722 H         1 <0>         0.0543
     45 H15        -6.1009   -4.1914    0.6262 H         1 <0>         0.1006
     46 H16        -5.2994   -3.3652   -0.7455 H         1 <0>         0.0949
     47 H17        -3.5844   -6.9844    0.1432 H         1 <0>         0.0890
     48 H18        -4.9618   -6.5909    1.2182 H         1 <0>         0.0838
     49 H19        -7.0123   -7.3042    0.4728 H         1 <0>         0.1264
     50 H20        -7.2838   -7.7869   -1.2195 H         1 <0>         0.0973
     51 H21        -5.1417   -8.9152    0.6410 H         1 <0>         0.1335
     52 H22        -6.6402   -9.7429    0.1545 H         1 <0>         0.1395
     53 H23        -4.8358  -10.4325   -1.2003 H         1 <0>         0.4344
     54 H24        -3.4347   -8.4981   -0.9144 H         1 <0>         0.1345
     55 H25        -3.6024   -9.0007   -2.6134 H         1 <0>         0.1397
     56 H26        -5.3958   -7.3257   -2.9400 H         1 <0>         0.0953
     57 H27        -3.9046   -6.5448   -2.3592 H         1 <0>         0.1180
     58 H28        -8.0473   -5.8653   -2.9300 H         1 <0>         0.4018
     59 H29       -10.1017   -6.4974   -1.0978 H         1 <0>         0.0871
     60 H30       -10.2256   -4.7691   -1.5052 H         1 <0>         0.0914
     61 H31       -11.0830   -4.0751   -3.5935 H         1 <0>         0.1481
     62 H32       -12.2788   -7.0005   -6.4597 H         1 <0>         0.1497
     63 H33       -11.2590   -8.7681   -5.0829 H         1 <0>         0.1496
     64 H34        -5.8873   -9.5633   -2.1214 H         1 <0>         0.4277
@<TRIPOS>BOND
     1    1    2 1
     2    1   33 1
     3    1   34 1
     4    1   35 1
     5    2    3 1
     6    2   36 1
     7    2   37 1
     8    3    4 1
     9    3   38 1
    10    3   39 1
    11    4    5 1
    12    4   40 1
    13    4   41 1
    14    5    6 1
    15    5    7 1
    16    5    8 1
    17    7   42 1
    18    7   43 1
    19    7   44 1
    20    8    9 2
    21    8   10 am
    22   10   15 1
    23   10   11 1
    24   11   12 1
    25   11   45 1
    26   11   46 1
    27   12   13 1
    28   12   14 1
    29   12   21 1
    30   14   20 1
    31   14   15 1
    32   14   16 1
    33   15   47 1
    34   15   48 1
    35   16   17 1
    36   16   49 1
    37   16   50 1
    38   17   18 1
    39   17   51 1
    40   17   52 1
    41   18   19 1
    42   18   53 1
    43   18   64 1
    44   19   20 1
    45   19   54 1
    46   19   55 1
    47   20   56 1
    48   20   57 1
    49   21   22 2
    50   21   23 am
    51   23   24 1
    52   23   58 1
    53   24   25 1
    54   24   59 1
    55   24   60 1
    56   25   30 ar
    57   25   26 ar
    58   26   27 ar
    59   26   61 1
    60   27   28 ar
    61   27   32 1
    62   28   29 ar
    63   28   62 1
    64   29   30 ar
    65   29   63 1
    66   30   31 1
@<TRIPOS>MOLECULE
ZINC39637234
   68    71     0     0     0
SMALL
USER_CHARGES

@<TRIPOS>ATOM
      1 C1          2.9205   -3.5115   -1.8772 C.3       1 <0>        -0.1551
      2 C2          2.3254   -3.8237   -0.5027 C.3       1 <0>        -0.0823
      3 H1          1.3610   -4.3160   -0.6276 H         1 <0>         0.0617
      4 C3          3.2734   -4.7465    0.2658 C.3       1 <0>        -0.1211
      5 C4          2.6784   -5.0587    1.6403 C.3       1 <0>        -0.1130
      6 C5          2.4890   -3.7570    2.4217 C.3       1 <0>        -0.1327
      7 C6          1.5410   -2.8342    1.6533 C.3       1 <0>         0.1496
      8 H2          1.4061   -1.9068    2.2100 H         1 <0>         0.0938
      9 C7          2.1361   -2.5220    0.2787 C.3       1 <0>        -0.0968
     10 H3          3.1005   -2.0296    0.4037 H         1 <0>         0.0899
     11 C8          1.1881   -1.5991   -0.4897 C.3       1 <0>        -0.1521
     12 N1          0.2448   -3.4959    1.4854 N.am      1 <0>        -0.7155
     13 C9         -0.6814   -3.4211    2.4616 C.2       1 <0>         0.5198
     14 O1         -0.4419   -2.8060    3.4790 O.2       1 <0>        -0.5208
     15 C10        -2.0148   -4.1019    2.2889 C.3       1 <0>        -0.1145
     16 H4         -2.2636   -4.1846    1.2309 H         1 <0>         0.1114
     17 C11        -3.1174   -3.3240    3.0416 C.3       1 <0>         0.1174
     18 N2         -4.0072   -4.3737    3.5915 N.am      1 <0>        -0.6174
     19 C12        -3.0832   -5.4448    4.0355 C.3       1 <0>         0.0889
     20 C13        -1.9948   -5.4928    2.9447 C.3       1 <0>        -0.0705
     21 C14        -0.6307   -5.7614    3.5728 C.3       1 <0>        -0.1516
     22 C15        -0.6163   -7.1725    4.1671 C.3       1 <0>        -0.0089
     23 N3         -0.8926   -8.1534    3.1106 N.4       1 <0>        -0.5051
     24 C16        -2.2438   -7.9460    2.5759 C.3       1 <0>        -0.0118
     25 C17        -2.3270   -6.5676    1.9142 C.3       1 <0>        -0.1363
     26 C18        -5.3526   -4.3585    3.6699 C.2       1 <0>         0.5851
     27 O2         -5.9808   -3.4514    3.1599 O.2       1 <0>        -0.4994
     28 C19        -6.0643   -5.4450    4.3762 C.ar      1 <0>        -0.1031
     29 C20        -7.4073   -5.7018    4.0947 C.ar      1 <0>        -0.0201
     30 C21        -8.0666   -6.7170    4.7562 C.ar      1 <0>        -0.1510
     31 C22        -7.4005   -7.4811    5.6976 C.ar      1 <0>        -0.0768
     32 C23        -6.0677   -7.2322    5.9828 C.ar      1 <0>         0.0993
     33 C24        -5.3948   -6.2215    5.3225 C.ar      1 <0>        -0.1143
     34 F1         -5.4236   -7.9817    6.9040 F         1 <0>        -0.1229
     35 C25        -9.5165   -6.9941    4.4528 C.3       1 <0>         0.5110
     36 F2         -9.6056   -7.9283    3.4152 F         1 <0>        -0.1691
     37 F3        -10.1426   -7.5047    5.5950 F         1 <0>        -0.1683
     38 F4        -10.1474   -5.8066    4.0666 F         1 <0>        -0.1661
     39 H5          3.8849   -3.0191   -1.7523 H         1 <0>         0.0592
     40 H6          3.0554   -4.4388   -2.4339 H         1 <0>         0.0563
     41 H7          2.2451   -2.8540   -2.4247 H         1 <0>         0.0615
     42 H8          3.4083   -5.6739   -0.2909 H         1 <0>         0.0645
     43 H9          4.2378   -4.2542    0.3907 H         1 <0>         0.0695
     44 H10         1.7140   -5.5511    1.5154 H         1 <0>         0.0492
     45 H11         3.3538   -5.7162    2.1878 H         1 <0>         0.0634
     46 H12         2.0651   -3.9794    3.4010 H         1 <0>         0.0667
     47 H13         3.4534   -3.2647    2.5467 H         1 <0>         0.0787
     48 H14         0.2236   -2.0915   -0.6146 H         1 <0>         0.0524
     49 H15         1.0532   -0.6718    0.0670 H         1 <0>         0.0586
     50 H16         1.6120   -1.3767   -1.4690 H         1 <0>         0.0653
     51 H17         0.0532   -3.9879    0.6717 H         1 <0>         0.3985
     52 H18        -2.6828   -2.7334    3.8481 H         1 <0>         0.1025
     53 H19        -3.6672   -2.6822    2.3531 H         1 <0>         0.1003
     54 H20        -2.6445   -5.1927    5.0010 H         1 <0>         0.0941
     55 H21        -3.6063   -6.3993    4.0919 H         1 <0>         0.0923
     56 H22         0.1436   -5.6800    2.8099 H         1 <0>         0.1014
     57 H23        -0.4433   -5.0325    4.3613 H         1 <0>         0.1293
     58 H24         0.3628   -7.3734    4.6020 H         1 <0>         0.1410
     59 H25        -1.3796   -7.2482    4.9415 H         1 <0>         0.1323
     60 H26        -0.2181   -8.0450    2.3681 H         1 <0>         0.4287
     61 H27        -2.4645   -8.7171    1.8378 H         1 <0>         0.1418
     62 H28        -2.9685   -8.0032    3.3881 H         1 <0>         0.1308
     63 H29        -3.3356   -6.4071    1.5333 H         1 <0>         0.1194
     64 H30        -1.6141   -6.5154    1.0913 H         1 <0>         0.0991
     65 H31        -7.9294   -5.1063    3.3604 H         1 <0>         0.1606
     66 H32        -7.9215   -8.2747    6.2125 H         1 <0>         0.1608
     67 H33        -4.3547   -6.0304    5.5417 H         1 <0>         0.1552
     68 H34        -0.8225   -9.0850    3.4917 H         1 <0>         0.4349
@<TRIPOS>BOND
     1    1    2 1
     2    1   39 1
     3    1   40 1
     4    1   41 1
     5    2    3 1
     6    2    9 1
     7    2    4 1
     8    4    5 1
     9    4   42 1
    10    4   43 1
    11    5    6 1
    12    5   44 1
    13    5   45 1
    14    6    7 1
    15    6   46 1
    16    6   47 1
    17    7    8 1
    18    7    9 1
    19    7   12 1
    20    9   10 1
    21    9   11 1
    22   11   48 1
    23   11   49 1
    24   11   50 1
    25   12   13 am
    26   12   51 1
    27   13   14 2
    28   13   15 1
    29   15   16 1
    30   15   20 1
    31   15   17 1
    32   17   18 1
    33   17   52 1
    34   17   53 1
    35   18   19 1
    36   18   26 am
    37   19   20 1
    38   19   54 1
    39   19   55 1
    40   20   25 1
    41   20   21 1
    42   21   22 1
    43   21   56 1
    44   21   57 1
    45   22   23 1
    46   22   58 1
    47   22   59 1
    48   23   24 1
    49   23   60 1
    50   23   68 1
    51   24   25 1
    52   24   61 1
    53   24   62 1
    54   25   63 1
    55   25   64 1
    56   26   27 2
    57   26   28 1
    58   28   33 ar
    59   28   29 ar
    60   29   30 ar
    61   29   65 1
    62   30   31 ar
    63   30   35 1
    64   31   32 ar
    65   31   66 1
    66   32   33 ar
    67   32   34 1
    68   33   67 1
    69   35   36 1
    70   35   37 1
    71   35   38 1
@<TRIPOS>MOLECULE
ZINC39657147
   64    66     0     0     0
SMALL
USER_CHARGES

@<TRIPOS>ATOM
      1 C1         -0.1592    1.2244    0.6967 C.3       1 <0>        -0.1555
      2 C2         -0.1104   -0.2975    0.5472 C.3       1 <0>        -0.1204
      3 C3          0.6154   -0.6595   -0.7502 C.3       1 <0>        -0.0763
      4 H1          1.5991   -0.1901   -0.7594 H         1 <0>         0.0776
      5 C4         -0.1987   -0.1612   -1.9460 C.3       1 <0>        -0.1531
      6 C5          0.7743   -2.1786   -0.8389 C.3       1 <0>        -0.1337
      7 C6          1.5954   -2.5277   -2.0534 C.2       1 <0>         0.5474
      8 O1          2.0124   -1.6481   -2.7768 O.2       1 <0>        -0.5278
      9 N1          1.8664   -3.8174   -2.3356 N.am      1 <0>        -0.6211
     10 C7          1.4427   -5.0207   -1.5814 C.3       1 <0>         0.1157
     11 C8          1.0944   -6.0609   -2.6696 C.3       1 <0>        -0.1157
     12 H2          1.4032   -7.0576   -2.3546 H         1 <0>         0.1166
     13 C9          1.8945   -5.6182   -3.9061 C.3       1 <0>        -0.0720
     14 C10         2.6501   -4.3531   -3.4744 C.3       1 <0>         0.1061
     15 C11         0.9492   -5.2932   -5.0587 C.3       1 <0>        -0.1473
     16 C12         1.7701   -4.9108   -6.2935 C.3       1 <0>        -0.0095
     17 N2          2.6551   -6.0236   -6.6588 N.4       1 <0>        -0.5045
     18 C13         3.6219   -6.2690   -5.5819 C.3       1 <0>        -0.0100
     19 C14         2.8793   -6.7086   -4.3169 C.3       1 <0>        -0.1341
     20 C15        -0.3837   -6.0387   -2.9626 C.2       1 <0>         0.5186
     21 O2         -1.0105   -5.0075   -2.8416 O.2       1 <0>        -0.5146
     22 N3         -1.0090   -7.1649   -3.3592 N.am      1 <0>        -0.7242
     23 C16        -2.4459   -7.1433   -3.6440 C.3       1 <0>         0.1833
     24 H3         -2.9415   -6.4537   -2.9608 H         1 <0>         0.1033
     25 C17        -2.6732   -6.6844   -5.0858 C.3       1 <0>        -0.1584
     26 C18        -3.0149   -8.5268   -3.4616 C.ar      1 <0>        -0.0862
     27 C19        -2.2973   -9.6303   -3.8840 C.ar      1 <0>        -0.1121
     28 C20        -2.8186  -10.8994   -3.7165 C.ar      1 <0>        -0.0859
     29 C21        -4.0586  -11.0652   -3.1262 C.ar      1 <0>        -0.0865
     30 C22        -4.7763   -9.9607   -2.7038 C.ar      1 <0>        -0.0813
     31 C23        -4.2518   -8.6923   -2.8669 C.ar      1 <0>        -0.0982
     32 Br1        -4.7726  -12.8012   -2.8974 Br        1 <0>        -0.0361
     33 H4          0.8563    1.6194    0.7261 H         1 <0>         0.0547
     34 H5         -0.6925    1.6558   -0.1505 H         1 <0>         0.0579
     35 H6         -0.6763    1.4823    1.6210 H         1 <0>         0.0562
     36 H7          0.4229   -0.7289    1.3943 H         1 <0>         0.0619
     37 H8         -1.1259   -0.6925    0.5178 H         1 <0>         0.0630
     38 H9         -1.1824   -0.6306   -1.9369 H         1 <0>         0.0486
     39 H10        -0.3119    0.9211   -1.8829 H         1 <0>         0.0581
     40 H11         0.3184   -0.4190   -2.8703 H         1 <0>         0.0674
     41 H12         1.2767   -2.5442    0.0567 H         1 <0>         0.0930
     42 H13        -0.2087   -2.6427   -0.9192 H         1 <0>         0.0996
     43 H14         2.2582   -5.3837   -0.9559 H         1 <0>         0.0899
     44 H15         0.5659   -4.7987   -0.9732 H         1 <0>         0.0977
     45 H16         2.6782   -3.6308   -4.2902 H         1 <0>         0.0871
     46 H17         3.6608   -4.6068   -3.1548 H         1 <0>         0.0826
     47 H18         0.3373   -6.1665   -5.2847 H         1 <0>         0.0947
     48 H19         0.3054   -4.4599   -4.7774 H         1 <0>         0.1244
     49 H20         1.0978   -4.6940   -7.1236 H         1 <0>         0.1382
     50 H21         2.3696   -4.0278   -6.0718 H         1 <0>         0.1347
     51 H22         2.1033   -6.8548   -6.8095 H         1 <0>         0.4270
     52 H23         4.3144   -7.0533   -5.8875 H         1 <0>         0.1402
     53 H24         4.1775   -5.3539   -5.3773 H         1 <0>         0.1332
     54 H25         3.5964   -6.8731   -3.5126 H         1 <0>         0.1221
     55 H26         2.3367   -7.6327   -4.5160 H         1 <0>         0.0967
     56 H27        -0.5077   -7.9896   -3.4559 H         1 <0>         0.3990
     57 H28        -3.7423   -6.6684   -5.2977 H         1 <0>         0.0753
     58 H29        -2.2616   -5.6837   -5.2177 H         1 <0>         0.0644
     59 H30        -2.1776   -7.3741   -5.7690 H         1 <0>         0.0577
     60 H31        -1.3294   -9.5008   -4.3452 H         1 <0>         0.1241
     61 H32        -2.2581  -11.7615   -4.0468 H         1 <0>         0.1361
     62 H33        -5.7444  -10.0897   -2.2428 H         1 <0>         0.1395
     63 H34        -4.8103   -7.8302   -2.5334 H         1 <0>         0.1365
     64 H35         3.1501   -5.7933   -7.5073 H         1 <0>         0.4344
@<TRIPOS>BOND
     1    1    2 1
     2    1   33 1
     3    1   34 1
     4    1   35 1
     5    2    3 1
     6    2   36 1
     7    2   37 1
     8    3    4 1
     9    3    5 1
    10    3    6 1
    11    5   38 1
    12    5   39 1
    13    5   40 1
    14    6    7 1
    15    6   41 1
    16    6   42 1
    17    7    8 2
    18    7    9 am
    19    9   14 1
    20    9   10 1
    21   10   11 1
    22   10   43 1
    23   10   44 1
    24   11   12 1
    25   11   13 1
    26   11   20 1
    27   13   19 1
    28   13   14 1
    29   13   15 1
    30   14   45 1
    31   14   46 1
    32   15   16 1
    33   15   47 1
    34   15   48 1
    35   16   17 1
    36   16   49 1
    37   16   50 1
    38   17   18 1
    39   17   51 1
    40   17   64 1
    41   18   19 1
    42   18   52 1
    43   18   53 1
    44   19   54 1
    45   19   55 1
    46   20   21 2
    47   20   22 am
    48   22   23 1
    49   22   56 1
    50   23   24 1
    51   23   25 1
    52   23   26 1
    53   25   57 1
    54   25   58 1
    55   25   59 1
    56   26   31 ar
    57   26   27 ar
    58   27   28 ar
    59   27   60 1
    60   28   29 ar
    61   28   61 1
    62   29   30 ar
    63   29   32 1
    64   30   31 ar
    65   30   62 1
    66   31   63 1
@<TRIPOS>MOLECULE
ZINC39677059
   71    74     0     0     0
SMALL
USER_CHARGES

@<TRIPOS>ATOM
      1 C1         -0.1481    1.5964   -0.1005 C.3       1 <0>        -0.1236
      2 C2         -0.0701    0.0916   -0.0767 C.ar      1 <0>        -0.0503
      3 C3         -0.9732   -0.6567   -0.8111 C.ar      1 <0>        -0.1329
      4 C4         -0.9070   -2.0344   -0.7940 C.ar      1 <0>        -0.0803
      5 C5          0.0738   -2.6736   -0.0337 C.ar      1 <0>        -0.1435
      6 C6          0.9816   -1.9130    0.7046 C.ar      1 <0>        -0.0186
      7 C7          0.9076   -0.5355    0.6747 C.ar      1 <0>        -0.1269
      8 C8          2.0437   -2.5945    1.5283 C.3       1 <0>        -0.1380
      9 C9          0.1504   -4.1499   -0.0104 C.2       1 <0>         0.6014
     10 O1          0.2627   -4.7359    1.0486 O.2       1 <0>        -0.5258
     11 N1          0.0955   -4.8458   -1.1632 N.am      1 <0>        -0.6141
     12 C10         0.0683   -4.3126   -2.5456 C.3       1 <0>         0.1139
     13 C11         0.9647   -5.2773   -3.3539 C.3       1 <0>        -0.1152
     14 H1          0.5523   -5.4331   -4.3507 H         1 <0>         0.1179
     15 C12         0.9465   -6.5916   -2.5554 C.3       1 <0>        -0.0728
     16 C13         0.0554   -6.3179   -1.3350 C.3       1 <0>         0.1062
     17 C14         0.3555   -7.7155   -3.4010 C.3       1 <0>        -0.1336
     18 C15         0.4016   -9.0239   -2.6067 C.3       1 <0>        -0.0101
     19 N2          1.7913   -9.3327   -2.2489 N.4       1 <0>        -0.5043
     20 C16         2.3222   -8.2926   -1.3596 C.3       1 <0>        -0.0094
     21 C17         2.3574   -6.9533   -2.1012 C.3       1 <0>        -0.1466
     22 C18         2.3681   -4.7362   -3.4463 C.2       1 <0>         0.5139
     23 O2          2.7870   -3.9874   -2.5892 O.2       1 <0>        -0.5109
     24 N3          3.1577   -5.0843   -4.4816 N.am      1 <0>        -0.7314
     25 C19         4.5221   -4.5583   -4.5715 C.3       1 <0>         0.1213
     26 C20         5.1973   -5.1044   -5.8311 C.3       1 <0>        -0.0872
     27 C21         6.6007   -4.5633   -5.9236 C.ar      1 <0>        -0.0878
     28 C22         6.8563   -3.4289   -6.6714 C.ar      1 <0>        -0.1101
     29 C23         8.1435   -2.9326   -6.7562 C.ar      1 <0>        -0.0835
     30 C24         9.1754   -3.5703   -6.0929 C.ar      1 <0>        -0.1128
     31 C25         8.9197   -4.7039   -5.3447 C.ar      1 <0>        -0.1129
     32 C26         7.6314   -5.1979   -5.2563 C.ar      1 <0>        -0.0894
     33 C27         7.3518   -6.4309   -4.4362 C.3       1 <0>        -0.1152
     34 C28         8.4223   -1.6966   -7.5721 C.3       1 <0>        -0.1194
     35 H2          0.4672    1.9793   -0.9147 H         1 <0>         0.0771
     36 H3         -1.1828    1.9042   -0.2513 H         1 <0>         0.0720
     37 H4          0.2148    1.9940    0.8472 H         1 <0>         0.0720
     38 H5         -1.7318   -0.1610   -1.3986 H         1 <0>         0.1298
     39 H6         -1.6127   -2.6173   -1.3673 H         1 <0>         0.1239
     40 H7          1.6121    0.0544    1.2423 H         1 <0>         0.1308
     41 H8          2.9592   -2.6789    0.9427 H         1 <0>         0.0716
     42 H9          2.2394   -2.0081    2.4260 H         1 <0>         0.0720
     43 H10         1.7008   -3.5896    1.8118 H         1 <0>         0.0902
     44 H11        -0.9492   -4.3218   -2.9365 H         1 <0>         0.0889
     45 H12         0.4771   -3.3025   -2.5714 H         1 <0>         0.1017
     46 H13         0.4576   -6.8151   -0.4523 H         1 <0>         0.0889
     47 H14        -0.9643   -6.6507   -1.5288 H         1 <0>         0.0852
     48 H15        -0.6785   -7.4778   -3.6509 H         1 <0>         0.1222
     49 H16         0.9358   -7.8253   -4.3171 H         1 <0>         0.0975
     50 H17        -0.1922   -8.9186   -1.6988 H         1 <0>         0.1331
     51 H18        -0.0050   -9.8321   -3.2145 H         1 <0>         0.1403
     52 H19         1.8259  -10.2250   -1.7791 H         1 <0>         0.4343
     53 H20         1.6826   -8.2046   -0.4813 H         1 <0>         0.1349
     54 H21         3.3314   -8.5617   -1.0480 H         1 <0>         0.1384
     55 H22         3.0097   -7.0358   -2.9706 H         1 <0>         0.0957
     56 H23         2.7350   -6.1780   -1.4345 H         1 <0>         0.1223
     57 H24         2.8227   -5.6832   -5.1672 H         1 <0>         0.3988
     58 H25         4.4894   -3.4698   -4.6197 H         1 <0>         0.0742
     59 H26         5.0888   -4.8662   -3.6929 H         1 <0>         0.0728
     60 H27         5.2300   -6.1929   -5.7830 H         1 <0>         0.0776
     61 H28         4.6305   -4.7965   -6.7098 H         1 <0>         0.0799
     62 H29         6.0503   -2.9307   -7.1895 H         1 <0>         0.1220
     63 H30        10.1813   -3.1830   -6.1598 H         1 <0>         0.1249
     64 H31         9.7258   -5.2023   -4.8268 H         1 <0>         0.1238
     65 H32         7.4566   -7.3160   -5.0635 H         1 <0>         0.0694
     66 H33         8.0599   -6.4856   -3.6094 H         1 <0>         0.0675
     67 H34         6.3365   -6.3827   -4.0424 H         1 <0>         0.0616
     68 H35         8.3185   -0.8138   -6.9412 H         1 <0>         0.0730
     69 H36         9.4369   -1.7434   -7.9674 H         1 <0>         0.0693
     70 H37         7.7129   -1.6386   -8.3977 H         1 <0>         0.0676
     71 H38         2.3516   -9.3749   -3.0870 H         1 <0>         0.4272
@<TRIPOS>BOND
     1    1    2 1
     2    1   35 1
     3    1   36 1
     4    1   37 1
     5    2    7 ar
     6    2    3 ar
     7    3    4 ar
     8    3   38 1
     9    4    5 ar
    10    4   39 1
    11    5    6 ar
    12    5    9 1
    13    6    7 ar
    14    6    8 1
    15    7   40 1
    16    8   41 1
    17    8   42 1
    18    8   43 1
    19    9   10 2
    20    9   11 am
    21   11   16 1
    22   11   12 1
    23   12   13 1
    24   12   44 1
    25   12   45 1
    26   13   14 1
    27   13   15 1
    28   13   22 1
    29   15   21 1
    30   15   16 1
    31   15   17 1
    32   16   46 1
    33   16   47 1
    34   17   18 1
    35   17   48 1
    36   17   49 1
    37   18   19 1
    38   18   50 1
    39   18   51 1
    40   19   20 1
    41   19   52 1
    42   19   71 1
    43   20   21 1
    44   20   53 1
    45   20   54 1
    46   21   55 1
    47   21   56 1
    48   22   23 2
    49   22   24 am
    50   24   25 1
    51   24   57 1
    52   25   26 1
    53   25   58 1
    54   25   59 1
    55   26   27 1
    56   26   60 1
    57   26   61 1
    58   27   32 ar
    59   27   28 ar
    60   28   29 ar
    61   28   62 1
    62   29   30 ar
    63   29   34 1
    64   30   31 ar
    65   30   63 1
    66   31   32 ar
    67   31   64 1
    68   32   33 1
    69   33   65 1
    70   33   66 1
    71   33   67 1
    72   34   68 1
    73   34   69 1
    74   34   70 1
@<TRIPOS>MOLECULE
ZINC64117483
   60    63     0     0     0
SMALL
USER_CHARGES

@<TRIPOS>ATOM
      1 C1         -0.0184    1.5028    0.0103 C.3       1 <0>        -0.1242
      2 C2          0.0021   -0.0041    0.0020 C.ar      1 <0>        -0.0765
      3 C3          0.0057   -0.6888   -1.1991 C.ar      1 <0>        -0.1152
      4 C4          0.0245   -2.0707   -1.2067 C.ar      1 <0>        -0.1166
      5 C5          0.0400   -2.7685   -0.0132 C.ar      1 <0>        -0.1255
      6 C6          0.0373   -2.0840    1.1875 C.ar      1 <0>        -0.1161
      7 C7          0.0229   -0.7015    1.1951 C.ar      1 <0>        -0.0856
      8 C8          0.0252    0.0449    2.5043 C.3       1 <0>        -0.0914
      9 C9         -1.4129    0.3873    2.8987 C.3       1 <0>         0.1490
     10 H1         -1.8917    0.9349    2.0870 H         1 <0>         0.0937
     11 C10        -1.4034    1.2515    4.1612 C.3       1 <0>        -0.1665
     12 N1         -2.1554   -0.8486    3.1586 N.am      1 <0>        -0.7181
     13 C11        -3.4965   -0.8694    3.0268 C.2       1 <0>         0.5011
     14 O1         -4.0887    0.1350    2.6932 O.2       1 <0>        -0.4865
     15 C12        -4.2603   -2.1408    3.2941 C.3       1 <0>         0.1451
     16 H2         -3.7052   -2.9891    2.8937 H         1 <0>         0.1226
     17 C13        -4.4440   -2.3178    4.8027 C.3       1 <0>        -0.1103
     18 C14        -5.0985   -3.6473    5.0765 C.2       1 <0>         0.0788
     19 C15        -4.4801   -4.8098    5.3856 C.ar      1 <0>        -0.1725
     20 C16        -3.0671   -5.1708    5.5519 C.ar      1 <0>        -0.0128
     21 C17        -2.7490   -6.4464    5.8694 C.ar      1 <0>        -0.1497
     22 C18        -3.7324   -7.4300    6.0427 C.ar      1 <0>         0.0530
     23 C19        -5.0509   -7.1749    5.9066 C.ar      1 <0>        -0.2079
     24 C20        -5.4993   -5.8667    5.5745 C.ar      1 <0>         0.3276
     25 N2         -6.7010   -5.3767    5.3894 N.pl3     1 <0>        -0.5835
     26 C21        -6.5802   -3.9503    5.0676 C.3       1 <0>         0.0580
     27 N3         -5.5729   -2.0670    2.6477 N.am      1 <0>        -0.7305
     28 C22        -6.4373   -1.0903    2.9872 C.2       1 <0>         0.6126
     29 O2         -6.1275   -0.2697    3.8309 O.2       1 <0>        -0.4836
     30 C23        -7.7506   -1.0165    2.3404 C.2       1 <0>        -0.2759
     31 C24        -8.7719   -0.0997    2.5381 C.2       1 <0>        -0.0506
     32 C25        -9.9000   -0.2892    1.7764 C.2       1 <0>        -0.1859
     33 C26        -9.9410   -1.3288    0.9067 C.2       1 <0>        -0.2038
     34 S1         -8.4481   -2.0773    1.0890 S.3       1 <0>         0.1900
     35 H3          1.0042    1.8801    0.0026 H         1 <0>         0.0749
     36 H4         -0.5455    1.8639   -0.8728 H         1 <0>         0.0687
     37 H5         -0.5286    1.8543    0.9071 H         1 <0>         0.0690
     38 H6         -0.0064   -0.1437   -2.1314 H         1 <0>         0.1230
     39 H7          0.0266   -2.6056   -2.1449 H         1 <0>         0.1221
     40 H8          0.0540   -3.8484   -0.0191 H         1 <0>         0.1199
     41 H9          0.0491   -2.6290    2.1199 H         1 <0>         0.1156
     42 H10         0.4754   -0.5783    3.2770 H         1 <0>         0.0795
     43 H11         0.6013    0.9641    2.3974 H         1 <0>         0.0947
     44 H12        -0.8510    2.1711    3.9679 H         1 <0>         0.0709
     45 H13        -2.4280    1.4954    4.4422 H         1 <0>         0.0648
     46 H14        -0.9246    0.7039    4.9729 H         1 <0>         0.0590
     47 H15        -1.6817   -1.6520    3.4254 H         1 <0>         0.3955
     48 H16        -3.4714   -2.2837    5.2936 H         1 <0>         0.1243
     49 H17        -5.0740   -1.5163    5.1885 H         1 <0>         0.1401
     50 H18        -2.2930   -4.4290    5.4223 H         1 <0>         0.1604
     51 H19        -1.7099   -6.7142    5.9922 H         1 <0>         0.1581
     52 H20        -3.4224   -8.4333    6.2951 H         1 <0>         0.1606
     53 H21        -5.7692   -7.9684    6.0505 H         1 <0>         0.1603
     54 H22        -7.0911   -3.3488    5.8194 H         1 <0>         0.1753
     55 H23        -6.9981   -3.7533    4.0804 H         1 <0>         0.1669
     56 H24        -5.8198   -2.7210    1.9753 H         1 <0>         0.4074
     57 H25        -8.6865    0.7115    3.2460 H         1 <0>         0.1527
     58 H26       -10.7422    0.3803    1.8694 H         1 <0>         0.1447
     59 H27       -10.7471   -1.6085    0.2446 H         1 <0>         0.1935
     60 H28        -7.5315   -5.8732    5.4577 H         1 <0>         0.4558
@<TRIPOS>BOND
     1    1    2 1
     2    1   35 1
     3    1   36 1
     4    1   37 1
     5    2    7 ar
     6    2    3 ar
     7    3    4 ar
     8    3   38 1
     9    4    5 ar
    10    4   39 1
    11    5    6 ar
    12    5   40 1
    13    6    7 ar
    14    6   41 1
    15    7    8 1
    16    8    9 1
    17    8   42 1
    18    8   43 1
    19    9   10 1
    20    9   11 1
    21    9   12 1
    22   11   44 1
    23   11   45 1
    24   11   46 1
    25   12   13 am
    26   12   47 1
    27   13   14 2
    28   13   15 1
    29   15   16 1
    30   15   17 1
    31   15   27 1
    32   17   18 1
    33   17   48 1
    34   17   49 1
    35   18   26 1
    36   18   19 2
    37   19   24 ar
    38   19   20 ar
    39   20   21 ar
    40   20   50 1
    41   21   22 ar
    42   21   51 1
    43   22   23 ar
    44   22   52 1
    45   23   24 ar
    46   23   53 1
    47   24   25 2
    48   25   26 1
    49   25   60 1
    50   26   54 1
    51   26   55 1
    52   27   28 am
    53   27   56 1
    54   28   29 2
    55   28   30 1
    56   30   34 1
    57   30   31 2
    58   31   32 1
    59   31   57 1
    60   32   33 2
    61   32   58 1
    62   33   34 1
    63   33   59 1
@<TRIPOS>MOLECULE
ZINC12470086
   56    60     0     0     0
SMALL
USER_CHARGES
2-[[2-[(8-methoxy-4-methyl-[1,2,4]triazolo[4,5-a]quinolin-1-yl)sulfanyl]acetyl]amino]-4,5,6,7-tetrahydrobenzothiophene-3-carboxamide
@<TRIPOS>ATOM
      1 C1         -8.1072   -0.0370    3.1524 C.3       1 <0>        -0.1057
      2 C2         -6.6722    0.3758    2.9486 C.2       1 <0>        -0.0551
      3 C3         -6.0032   -0.0389    1.8491 C.2       1 <0>        -0.0704
      4 C4         -4.6078    0.3709    1.6648 C.ar      1 <0>        -0.1026
      5 C5         -3.8820   -0.0376    0.5413 C.ar      1 <0>        -0.0323
      6 C6         -2.5849    0.3615    0.3875 C.ar      1 <0>        -0.1997
      7 C7         -1.9745    1.1631    1.3482 C.ar      1 <0>         0.1707
      8 C8         -2.6771    1.5772    2.4673 C.ar      1 <0>        -0.1669
      9 C9         -3.9978    1.1857    2.6358 C.ar      1 <0>         0.1717
     10 N1         -4.7228    1.5849    3.7450 N.pl3     1 <0>        -0.3898
     11 C10        -6.0333    1.1954    3.9087 C.2       1 <0>         0.2239
     12 N2         -6.4500    1.7267    5.0435 N.2       1 <0>        -0.2613
     13 N3         -5.5008    2.4070    5.5812 N.2       1 <0>        -0.2610
     14 C11        -4.4227    2.3554    4.8306 C.2       1 <0>         0.1265
     15 S1         -2.8782    3.1348    5.1646 S.3       1 <0>         0.1067
     16 C12        -3.2667    3.9411    6.7378 C.3       1 <0>        -0.1587
     17 C13        -2.0561    4.6914    7.2302 C.2       1 <0>         0.5322
     18 O1         -1.0315    4.6819    6.5813 O.2       1 <0>        -0.4827
     19 N4         -2.1119    5.3730    8.3916 N.am      1 <0>        -0.6126
     20 C14        -0.9980    6.0634    8.8446 C.2       1 <0>         0.0680
     21 C15        -0.8634    6.8197   10.0002 C.2       1 <0>        -0.2216
     22 C16         0.4246    7.4449   10.2475 C.2       1 <0>        -0.0666
     23 C17         1.3626    7.2236    9.3010 C.2       1 <0>        -0.2047
     24 S2          0.5614    6.1974    8.1013 S.3       1 <0>         0.2334
     25 C18         2.7680    7.7406    9.2838 C.3       1 <0>        -0.0367
     26 C19         2.8799    8.8719   10.3162 C.3       1 <0>        -0.1143
     27 C20         2.2489    8.4041   11.6309 C.3       1 <0>        -0.1198
     28 C21         0.7311    8.2996   11.4711 C.3       1 <0>        -0.0614
     29 C22        -1.9784    6.9786   10.9390 C.2       1 <0>         0.5833
     30 O2         -2.1221    6.1876   11.8528 O.2       1 <0>        -0.5318
     31 N5         -2.8443    8.0007   10.7901 N.am      1 <0>        -0.8473
     32 O3         -0.6816    1.5467    1.1837 O.3       1 <0>        -0.3059
     33 C23        -0.0127    1.0858    0.0080 C.3       1 <0>         0.0226
     34 H1         -8.1402   -0.9743    3.7079 H         1 <0>         0.0803
     35 H2         -8.6317    0.7365    3.7134 H         1 <0>         0.0796
     36 H3         -8.5875   -0.1719    2.1833 H         1 <0>         0.0780
     37 H4         -6.4909   -0.6640    1.1157 H         1 <0>         0.1562
     38 H5         -4.3480   -0.6629   -0.2058 H         1 <0>         0.1490
     39 H6         -2.0274    0.0492   -0.4832 H         1 <0>         0.1449
     40 H7         -2.1987    2.2024    3.2067 H         1 <0>         0.1458
     41 H8         -4.0926    4.6379    6.5948 H         1 <0>         0.1371
     42 H9         -3.5504    3.1872    7.4722 H         1 <0>         0.1375
     43 H10        -2.9314    5.3806    8.9105 H         1 <0>         0.4234
     44 H11         3.4579    6.9375    9.5429 H         1 <0>         0.0835
     45 H12         3.0063    8.1235    8.2915 H         1 <0>         0.0820
     46 H13         3.9298    9.1139   10.4807 H         1 <0>         0.0744
     47 H14         2.3546    9.7540    9.9500 H         1 <0>         0.0684
     48 H15         2.6528    7.4280   11.8993 H         1 <0>         0.0678
     49 H16         2.4803    9.1209   12.4188 H         1 <0>         0.0708
     50 H17         0.3014    7.8347   12.3585 H         1 <0>         0.0756
     51 H18         0.3081    9.2955   11.3392 H         1 <0>         0.0771
     52 H19        -2.7298    8.6311   10.0618 H         1 <0>         0.4037
     53 H20        -3.5819    8.1058   11.4112 H         1 <0>         0.4040
     54 H21         0.0021   -0.0041    0.0020 H         1 <0>         0.0614
     55 H22         1.0099    1.4631    0.0003 H         1 <0>         0.1077
     56 H23        -0.5399    1.4469   -0.8751 H         1 <0>         0.0614
@<TRIPOS>BOND
     1    1    2 1
     2    1   34 1
     3    1   35 1
     4    1   36 1
     5    2   11 1
     6    2    3 2
     7    3    4 1
     8    3   37 1
     9    4    9 ar
    10    4    5 ar
    11    5    6 ar
    12    5   38 1
    13    6    7 ar
    14    6   39 1
    15    7    8 ar
    16    7   32 1
    17    8    9 ar
    18    8   40 1
    19    9   10 1
    20   10   14 1
    21   10   11 1
    22   11   12 2
    23   12   13 1
    24   13   14 2
    25   14   15 1
    26   15   16 1
    27   16   17 1
    28   16   41 1
    29   16   42 1
    30   17   18 2
    31   17   19 am
    32   19   20 1
    33   19   43 1
    34   20   24 1
    35   20   21 2
    36   21   22 1
    37   21   29 1
    38   22   28 1
    39   22   23 2
    40   23   24 1
    41   23   25 1
    42   25   26 1
    43   25   44 1
    44   25   45 1
    45   26   27 1
    46   26   46 1
    47   26   47 1
    48   27   28 1
    49   27   48 1
    50   27   49 1
    51   28   50 1
    52   28   51 1
    53   29   30 2
    54   29   31 am
    55   31   52 1
    56   31   53 1
    57   32   33 1
    58   33   54 1
    59   33   55 1
    60   33   56 1
@<TRIPOS>MOLECULE
ZINC17171072
   49    51     0     0     0
SMALL
USER_CHARGES
3-(benzamidocarbamoyl)-N-[4-(difluoromethylsulfanyl)phenyl]benzenesulfonamide
@<TRIPOS>ATOM
      1 C1        -10.3295   -5.0023   -6.2801 C.ar      1 <0>        -0.0865
      2 C2        -10.9654   -3.8326   -5.9038 C.ar      1 <0>        -0.1258
      3 C3        -10.3392   -2.9469   -5.0513 C.ar      1 <0>        -0.0533
      4 C4         -9.0612   -3.2329   -4.5686 C.ar      1 <0>        -0.1325
      5 C5         -8.4229   -4.4120   -4.9567 C.ar      1 <0>        -0.0849
      6 C6         -9.0626   -5.2919   -5.8052 C.ar      1 <0>        -0.1242
      7 C7         -8.3839   -2.2881   -3.6551 C.2       1 <0>         0.5646
      8 O1         -8.9401   -1.2597   -3.3228 O.2       1 <0>        -0.5338
      9 N1         -7.1499   -2.5672   -3.1907 N.am      1 <0>        -0.5171
     10 N2         -6.5081   -1.6719   -2.3250 N.am      1 <0>        -0.5171
     11 C8         -5.2740   -1.9510   -1.8607 C.2       1 <0>         0.5627
     12 O2         -4.7178   -2.9795   -2.1930 O.2       1 <0>        -0.5225
     13 C9         -4.5968   -1.0062   -0.9471 C.ar      1 <0>        -0.1466
     14 C10        -5.2329    0.1756   -0.5632 C.ar      1 <0>        -0.0280
     15 C11        -4.5957    1.0525    0.2897 C.ar      1 <0>        -0.1394
     16 C12        -3.3309    0.7603    0.7691 C.ar      1 <0>         0.0130
     17 C13        -2.6926   -0.4064    0.3881 C.ar      1 <0>        -0.6845
     18 C14        -3.3189   -1.2922   -0.4645 C.ar      1 <0>         0.0484
     19 S1         -1.0793   -0.7655    0.9986 S.o2      1 <0>         2.6907
     20 O3         -0.8787   -2.1609    0.8199 O.2       1 <0>        -0.9391
     21 O4         -0.9769   -0.1377    2.2693 O.2       1 <0>        -0.9421
     22 N3          0.0019   -0.0007    0.0044 N.pl3     1 <0>        -1.0542
     23 C15         0.0665   -0.3401   -1.3523 C.ar      1 <0>         0.1435
     24 C16         0.0933   -1.6752   -1.7335 C.ar      1 <0>        -0.1284
     25 C17         0.1512   -2.0102   -3.0717 C.ar      1 <0>        -0.0950
     26 C18         0.1939   -1.0115   -4.0364 C.ar      1 <0>        -0.0985
     27 C19         0.1729    0.3240   -3.6546 C.ar      1 <0>        -0.0722
     28 C20         0.1096    0.6585   -2.3165 C.ar      1 <0>        -0.1090
     29 S2          0.2740   -1.4386   -5.7439 S.3       1 <0>        -0.0928
     30 C21         0.2785   -3.2526   -5.7428 C.3       1 <0>         0.2712
     31 F1          1.3902   -3.7158   -5.0309 F         1 <0>        -0.1788
     32 F2         -0.8919   -3.7215   -5.1366 F         1 <0>        -0.1770
     33 H1        -10.8240   -5.6923   -6.9477 H         1 <0>         0.1313
     34 H2        -11.9543   -3.6125   -6.2780 H         1 <0>         0.1342
     35 H3        -10.8366   -2.0342   -4.7583 H         1 <0>         0.1391
     36 H4         -7.4322   -4.6370   -4.5903 H         1 <0>         0.1271
     37 H5         -8.5717   -6.2067   -6.1028 H         1 <0>         0.1333
     38 H6         -6.7060   -3.3879   -3.4559 H         1 <0>         0.4338
     39 H7         -6.9519   -0.8512   -2.0599 H         1 <0>         0.4320
     40 H8         -6.2220    0.4025   -0.9329 H         1 <0>         0.1381
     41 H9         -5.0868    1.9672    0.5875 H         1 <0>         0.1472
     42 H10        -2.8383    1.4480    1.4405 H         1 <0>         0.1492
     43 H11        -2.8212   -2.2046   -0.7580 H         1 <0>         0.1580
     44 H12         0.5905    0.6824    0.3620 H         1 <0>         0.4306
     45 H13         0.0642   -2.4516   -0.9833 H         1 <0>         0.1631
     46 H14         0.1675   -3.0486   -3.3683 H         1 <0>         0.1349
     47 H15         0.2064    1.1006   -4.4043 H         1 <0>         0.1378
     48 H16         0.0933    1.6967   -2.0196 H         1 <0>         0.1396
     49 H17         0.3269   -3.6165   -6.7692 H         1 <0>         0.1598
@<TRIPOS>BOND
     1    1    6 ar
     2    1    2 ar
     3    1   33 1
     4    2    3 ar
     5    2   34 1
     6    3    4 ar
     7    3   35 1
     8    4    5 ar
     9    4    7 1
    10    5    6 ar
    11    5   36 1
    12    6   37 1
    13    7    8 2
    14    7    9 am
    15    9   10 1
    16    9   38 1
    17   10   11 am
    18   10   39 1
    19   11   12 2
    20   11   13 1
    21   13   18 ar
    22   13   14 ar
    23   14   15 ar
    24   14   40 1
    25   15   16 ar
    26   15   41 1
    27   16   17 ar
    28   16   42 1
    29   17   18 ar
    30   17   19 1
    31   18   43 1
    32   19   20 2
    33   19   21 2
    34   19   22 1
    35   22   23 1
    36   22   44 1
    37   23   28 ar
    38   23   24 ar
    39   24   25 ar
    40   24   45 1
    41   25   26 ar
    42   25   46 1
    43   26   27 ar
    44   26   29 1
    45   27   28 ar
    46   27   47 1
    47   28   48 1
    48   29   30 1
    49   30   31 1
    50   30   32 1
    51   30   49 1
@<TRIPOS>MOLECULE
ZINC26062032
   68    72     0     0     0
SMALL
USER_CHARGES
N-[(1S)-1-[[3-(cyclopropylsulfamoyl)phenyl]carbamoyl]-2-methyl-propyl]adamantane-1-carboxamide
@<TRIPOS>ATOM
      1 C1          0.7624    7.2181   -1.3011 C.3       1 <0>        -0.1402
      2 C2         -0.4339    7.5911   -2.1790 C.3       1 <0>        -0.0965
      3 C3         -0.4504    6.7013   -3.4235 C.3       1 <0>        -0.1504
      4 C4         -1.7287    7.3881   -1.3896 C.3       1 <0>         0.1401
      5 H1         -1.6743    7.8813   -0.4079 H         1 <0>         0.1090
      6 C5         -2.8886    7.9426   -2.1759 C.2       1 <0>         0.5205
      7 O1         -3.4667    7.2420   -2.9795 O.2       1 <0>        -0.5154
      8 N1         -3.2835    9.2172   -1.9860 N.am      1 <0>        -0.6804
      9 C6         -4.2493    9.7829   -2.8258 C.ar      1 <0>         0.1333
     10 C7         -5.2265    8.9812   -3.4016 C.ar      1 <0>        -0.0757
     11 C8         -6.1781    9.5425   -4.2299 C.ar      1 <0>        -0.1182
     12 C9         -6.1589   10.9014   -4.4864 C.ar      1 <0>        -0.0358
     13 C10        -5.1878   11.7022   -3.9144 C.ar      1 <0>        -0.6616
     14 C11        -4.2362   11.1477   -3.0807 C.ar      1 <0>        -0.0542
     15 S1         -5.1680   13.4330   -4.2439 S.o2      1 <0>         2.6954
     16 O2         -3.8345   13.8728   -4.0255 O.2       1 <0>        -0.9532
     17 O3         -5.8378   13.6182   -5.4834 O.2       1 <0>        -0.9549
     18 N2         -6.1023   14.1623   -3.0874 N.pl3     1 <0>        -1.1196
     19 C12        -5.6907   14.1242   -1.6820 C.3       1 <0>         0.0184
     20 C13        -6.7942   14.0576   -0.6242 C.3       1 <0>        -0.1375
     21 C14        -6.0008   15.3508   -0.8215 C.3       1 <0>        -0.1348
     22 N3         -1.9379    5.9573   -1.1542 N.am      1 <0>        -0.7260
     23 C15        -1.3528    5.3553   -0.0998 C.2       1 <0>         0.5297
     24 O4         -0.6531    5.9980    0.6541 O.2       1 <0>        -0.5323
     25 C16        -1.5679    3.8835    0.1423 C.3       1 <0>        -0.0652
     26 C17        -1.0632    3.0890   -1.0639 C.3       1 <0>        -0.1003
     27 C18        -1.2816    1.5948   -0.8180 C.3       1 <0>        -0.0842
     28 C19        -0.5124    1.1660    0.4331 C.3       1 <0>        -0.1111
     29 C20        -1.0172    1.9605    1.6394 C.3       1 <0>        -0.0871
     30 C21        -0.7987    3.4547    1.3935 C.3       1 <0>        -0.0871
     31 C22        -2.5095    1.6895    1.8403 C.3       1 <0>        -0.1110
     32 C23        -3.2787    2.1183    0.5892 C.3       1 <0>        -0.0841
     33 C24        -2.7740    1.3238   -0.6171 C.3       1 <0>        -0.1107
     34 C25        -3.0603    3.6125    0.3433 C.3       1 <0>        -0.1002
     35 H2          0.7742    7.8579   -0.4064 H         1 <0>         0.0610
     36 H3          1.6933    7.3641   -1.8686 H         1 <0>         0.0528
     37 H4          0.6797    6.1642   -0.9972 H         1 <0>         0.0637
     38 H5         -0.3512    8.6450   -2.4830 H         1 <0>         0.0797
     39 H6         -1.3105    6.9695   -4.0546 H         1 <0>         0.0597
     40 H7         -0.5331    5.6474   -3.1196 H         1 <0>         0.0603
     41 H8          0.4805    6.8473   -3.9910 H         1 <0>         0.0585
     42 H9         -2.8466    9.8127   -1.1709 H         1 <0>         0.4415
     43 H10        -5.2423    7.9200   -3.2014 H         1 <0>         0.1568
     44 H11        -6.9385    8.9198   -4.6777 H         1 <0>         0.1376
     45 H12        -6.9043   11.3381   -5.1346 H         1 <0>         0.1413
     46 H13        -3.4805   11.7744   -2.6307 H         1 <0>         0.1416
     47 H14        -7.1044   14.5269   -3.3573 H         1 <0>         0.4291
     48 H15        -4.7955   13.5366   -1.9336 H         1 <0>         0.1132
     49 H16        -7.7534   13.8239   -1.1092 H         1 <0>         0.1076
     50 H17        -6.5531   13.2732    0.1083 H         1 <0>         0.1085
     51 H18        -5.1037   15.6355   -0.2521 H         1 <0>         0.1119
     52 H19        -6.3041   16.1862   -1.4696 H         1 <0>         0.1115
     53 H20        -2.5725    5.3744   -1.8380 H         1 <0>         0.4300
     54 H21        -1.6162    3.3973   -1.9634 H         1 <0>         0.0666
     55 H22         0.0097    3.2838   -1.2084 H         1 <0>         0.0681
     56 H23        -0.9186    1.0236   -1.6852 H         1 <0>         0.0747
     57 H24        -0.6694    0.0917    0.6098 H         1 <0>         0.0647
     58 H25         0.5605    1.3608    0.2886 H         1 <0>         0.0634
     59 H26        -0.4643    1.6523    2.5390 H         1 <0>         0.0743
     60 H27         0.2742    3.6495    1.2490 H         1 <0>         0.0696
     61 H28        -1.1615    4.0259    2.2607 H         1 <0>         0.0691
     62 H29        -2.6665    0.6152    2.0170 H         1 <0>         0.0647
     63 H30        -2.8724    2.2606    2.7076 H         1 <0>         0.0630
     64 H31        -4.3516    1.9235    0.7338 H         1 <0>         0.0742
     65 H32        -3.3270    1.6321   -1.5166 H         1 <0>         0.0637
     66 H33        -2.9311    0.2495   -0.4404 H         1 <0>         0.0656
     67 H34        -3.4231    4.1837    1.2105 H         1 <0>         0.0671
     68 H35        -3.6134    3.9208   -0.5562 H         1 <0>         0.0661
@<TRIPOS>BOND
     1    1    2 1
     2    1   35 1
     3    1   36 1
     4    1   37 1
     5    2    3 1
     6    2    4 1
     7    2   38 1
     8    3   39 1
     9    3   40 1
    10    3   41 1
    11    4    5 1
    12    4    6 1
    13    4   22 1
    14    6    7 2
    15    6    8 am
    16    8    9 1
    17    8   42 1
    18    9   14 ar
    19    9   10 ar
    20   10   11 ar
    21   10   43 1
    22   11   12 ar
    23   11   44 1
    24   12   13 ar
    25   12   45 1
    26   13   14 ar
    27   13   15 1
    28   14   46 1
    29   15   16 2
    30   15   17 2
    31   15   18 1
    32   18   19 1
    33   18   47 1
    34   19   21 1
    35   19   20 1
    36   19   48 1
    37   20   21 1
    38   20   49 1
    39   20   50 1
    40   21   51 1
    41   21   52 1
    42   22   23 am
    43   22   53 1
    44   23   24 2
    45   23   25 1
    46   25   30 1
    47   25   34 1
    48   25   26 1
    49   26   27 1
    50   26   54 1
    51   26   55 1
    52   27   33 1
    53   27   28 1
    54   27   56 1
    55   28   29 1
    56   28   57 1
    57   28   58 1
    58   29   30 1
    59   29   31 1
    60   29   59 1
    61   30   60 1
    62   30   61 1
    63   31   32 1
    64   31   62 1
    65   31   63 1
    66   32   33 1
    67   32   34 1
    68   32   64 1
    69   33   65 1
    70   33   66 1
    71   34   67 1
    72   34   68 1
@<TRIPOS>MOLECULE
ZINC39974628
   62    64     0     0     0
SMALL
USER_CHARGES

@<TRIPOS>ATOM
      1 C1         -0.5820   -8.4061    2.5110 C.3       1 <0>        -0.1392
      2 C2         -1.3472   -9.2432    1.4842 C.3       1 <0>        -0.1434
      3 C3         -1.0571   -8.7268    0.0985 C.2       1 <0>         0.5121
      4 O1         -0.3116   -7.7822   -0.0529 O.2       1 <0>        -0.5240
      5 N1         -1.6260   -9.3147   -0.9726 N.am      1 <0>        -0.6742
      6 C4         -1.4279   -8.7812   -2.2509 C.ar      1 <0>         0.1461
      7 C5         -2.4558   -8.8146   -3.1853 C.ar      1 <0>        -0.1323
      8 C6         -2.2611   -8.2882   -4.4476 C.ar      1 <0>        -0.0912
      9 C7         -1.0442   -7.7275   -4.7854 C.ar      1 <0>        -0.0827
     10 C8         -0.0126   -7.6911   -3.8558 C.ar      1 <0>         0.1352
     11 C9         -0.2071   -8.2135   -2.5849 C.ar      1 <0>        -0.1198
     12 N2          1.2191   -7.1237   -4.1987 N.pl3     1 <0>        -0.6193
     13 C10         1.7563   -7.3614   -5.4117 C.2       1 <0>         0.5470
     14 S1          1.0060   -8.4715   -6.4775 S.2       1 <0>        -0.5739
     15 N3          2.8841   -6.7253   -5.7857 N.pl3     1 <0>        -0.6324
     16 C11         3.3961   -6.9090   -7.0744 C.ar      1 <0>         0.1775
     17 C12         3.8549   -5.8191   -7.8028 C.ar      1 <0>        -0.1414
     18 C13         4.3603   -6.0039   -9.0748 C.ar      1 <0>        -0.0144
     19 C14         4.4093   -7.2722   -9.6234 C.ar      1 <0>        -0.6707
     20 C15         3.9532   -8.3595   -8.9008 C.ar      1 <0>        -0.0096
     21 C16         3.4520   -8.1823   -7.6261 C.ar      1 <0>        -0.0907
     22 S2          5.0537   -7.5035  -11.2469 S.o2      1 <0>         2.6878
     23 O2          4.4869   -8.7093  -11.7410 O.2       1 <0>        -0.9506
     24 O3          4.9095   -6.2614  -11.9219 O.2       1 <0>        -0.9539
     25 N4          6.6805   -7.7730  -11.0942 N.pl3     1 <0>        -0.9932
     26 C17         7.6299   -6.6517  -11.1110 C.3       1 <0>         0.1240
     27 C18         8.5087   -6.7310   -9.8587 C.3       1 <0>        -0.1100
     28 H1          7.8937   -6.5760   -8.9722 H         1 <0>         0.0785
     29 C19         9.1669   -8.1109   -9.7888 C.3       1 <0>        -0.1071
     30 C20         8.0855   -9.1893   -9.6891 C.3       1 <0>        -0.1075
     31 H2          8.5555  -10.1701   -9.6158 H         1 <0>         0.0845
     32 C21         7.2014   -9.1373  -10.9333 C.3       1 <0>         0.1231
     33 C22         7.2284   -8.9396   -8.4466 C.3       1 <0>        -0.1554
     34 C23         9.5906   -5.6512   -9.9249 C.3       1 <0>        -0.1484
     35 H3          0.4876   -8.4773    2.3133 H         1 <0>         0.0618
     36 H4         -0.8965   -7.3650    2.4380 H         1 <0>         0.0627
     37 H5         -0.7918   -8.7796    3.5133 H         1 <0>         0.0652
     38 H6         -1.0327  -10.2843    1.5572 H         1 <0>         0.0977
     39 H7         -2.4168   -9.1721    1.6819 H         1 <0>         0.0985
     40 H8         -2.1727  -10.1076   -0.8573 H         1 <0>         0.4143
     41 H9         -3.4078   -9.2528   -2.9246 H         1 <0>         0.1300
     42 H10        -3.0616   -8.3153   -5.1720 H         1 <0>         0.1354
     43 H11        -0.8949   -7.3174   -5.7733 H         1 <0>         0.1442
     44 H12         0.5918   -8.1821   -1.8588 H         1 <0>         0.1406
     45 H13         1.6867   -6.5591   -3.5634 H         1 <0>         0.4105
     46 H14         3.3407   -6.1402   -5.1613 H         1 <0>         0.4118
     47 H15         3.8162   -4.8281   -7.3752 H         1 <0>         0.1345
     48 H16         4.7172   -5.1567   -9.6417 H         1 <0>         0.1439
     49 H17         3.9926   -9.3488   -9.3323 H         1 <0>         0.1440
     50 H18         3.0998   -9.0324   -7.0607 H         1 <0>         0.1597
     51 H19         8.2556   -6.7160  -12.0012 H         1 <0>         0.0775
     52 H20         7.0822   -5.7093  -11.1140 H         1 <0>         0.0900
     53 H21         9.7619   -8.2753  -10.6871 H         1 <0>         0.0662
     54 H22         9.8121   -8.1615   -8.9118 H         1 <0>         0.0652
     55 H23         6.3712   -9.8344  -10.8192 H         1 <0>         0.0920
     56 H24         7.7914   -9.4088  -11.8087 H         1 <0>         0.0773
     57 H25         6.7577   -7.9593   -8.5209 H         1 <0>         0.0608
     58 H26         6.4584   -9.7079   -8.3760 H         1 <0>         0.0558
     59 H27         7.8583   -8.9739   -7.5577 H         1 <0>         0.0556
     60 H28         9.1209   -4.6690   -9.9772 H         1 <0>         0.0578
     61 H29        10.2156   -5.7080   -9.0337 H         1 <0>         0.0583
     62 H30        10.2060   -5.8074  -10.8109 H         1 <0>         0.0583
@<TRIPOS>BOND
     1    1    2 1
     2    1   35 1
     3    1   36 1
     4    1   37 1
     5    2    3 1
     6    2   38 1
     7    2   39 1
     8    3    4 2
     9    3    5 am
    10    5    6 1
    11    5   40 1
    12    6   11 ar
    13    6    7 ar
    14    7    8 ar
    15    7   41 1
    16    8    9 ar
    17    8   42 1
    18    9   10 ar
    19    9   43 1
    20   10   11 ar
    21   10   12 1
    22   11   44 1
    23   12   13 1
    24   12   45 1
    25   13   14 2
    26   13   15 1
    27   15   16 1
    28   15   46 1
    29   16   21 ar
    30   16   17 ar
    31   17   18 ar
    32   17   47 1
    33   18   19 ar
    34   18   48 1
    35   19   20 ar
    36   19   22 1
    37   20   21 ar
    38   20   49 1
    39   21   50 1
    40   22   23 2
    41   22   24 2
    42   22   25 1
    43   25   32 1
    44   25   26 1
    45   26   27 1
    46   26   51 1
    47   26   52 1
    48   27   28 1
    49   27   29 1
    50   27   34 1
    51   29   30 1
    52   29   53 1
    53   29   54 1
    54   30   31 1
    55   30   32 1
    56   30   33 1
    57   32   55 1
    58   32   56 1
    59   33   57 1
    60   33   58 1
    61   33   59 1
    62   34   60 1
    63   34   61 1
    64   34   62 1
@<TRIPOS>MOLECULE
ZINC04235383
   58    61     0     0     0
SMALL
USER_CHARGES

@<TRIPOS>ATOM
      1 C1          2.1152    1.4183   -0.7385 C.ar      1 <0>        -0.0961
      2 C2          1.1729    2.0858    0.0227 C.ar      1 <0>        -0.0841
      3 C3          0.2521    1.3736    0.7686 C.ar      1 <0>        -0.1613
      4 C4          0.2709   -0.0076    0.7561 C.ar      1 <0>        -0.0722
      5 C5          1.2156   -0.6806   -0.0071 C.ar      1 <0>         0.1580
      6 C6          2.1390    0.0377   -0.7557 C.ar      1 <0>        -0.1074
      7 N1          1.2373   -2.0799   -0.0219 N.am      1 <0>        -0.6459
      8 C7          0.0866   -2.7729    0.0871 C.2       1 <0>         0.6468
      9 O1         -0.9772   -2.1858    0.1010 O.2       1 <0>        -0.5464
     10 O2          0.1157   -4.1158    0.1806 O.3       1 <0>        -0.3253
     11 C8         -1.1415   -4.7857    0.2935 C.3       1 <0>         0.0790
     12 H1         -1.9266   -4.2185   -0.2066 H         1 <0>         0.1188
     13 C9         -1.5009   -5.0301    1.7741 C.3       1 <0>         0.0384
     14 O3         -2.0968   -6.3291    1.8636 O.3       1 <0>        -0.3458
     15 C10        -2.1481   -6.9479    0.5708 C.3       1 <0>         0.0462
     16 H2         -3.1382   -6.9048    0.1171 H         1 <0>         0.1114
     17 C11        -1.0521   -6.2232   -0.2783 C.3       1 <0>         0.0470
     18 H3         -1.2138   -6.2775   -1.3549 H         1 <0>         0.1153
     19 O4          0.1759   -6.8257    0.1678 O.3       1 <0>        -0.3400
     20 C12        -0.0775   -8.2254    0.3654 C.3       1 <0>         0.0442
     21 C13        -1.5967   -8.3876    0.6883 C.3       1 <0>         0.1137
     22 H4         -1.7522   -8.7733    1.6958 H         1 <0>         0.1516
     23 N2         -2.2351   -9.2615   -0.2991 N.pl3     1 <0>        -0.6837
     24 C14        -2.3088  -10.5887   -0.0766 C.2       1 <0>         0.5643
     25 S1         -1.6563  -11.2534    1.3599 S.2       1 <0>        -0.6222
     26 N3         -2.8961  -11.3927   -0.9849 N.pl3     1 <0>        -0.6783
     27 C15        -2.9762  -12.8354   -0.7430 C.3       1 <0>         0.1433
     28 C16        -1.6801  -13.5030   -1.2070 C.3       1 <0>        -0.1272
     29 C17        -1.7637  -15.0097   -0.9544 C.3       1 <0>        -0.1151
     30 C18        -2.9447  -15.5926   -1.7330 C.3       1 <0>        -0.1240
     31 C19        -4.2408  -14.9250   -1.2691 C.3       1 <0>        -0.1147
     32 C20        -4.1572  -13.4183   -1.5217 C.3       1 <0>        -0.1273
     33 C21        -0.7729    2.1049    1.5966 C.3       1 <0>         0.5094
     34 F1         -0.5933    3.4845    1.4492 F         1 <0>        -0.1752
     35 F2         -2.0569    1.7532    1.1665 F         1 <0>        -0.1724
     36 F3         -0.6201    1.7559    2.9427 F         1 <0>        -0.1750
     37 H5          2.8303    1.9774   -1.3236 H         1 <0>         0.1445
     38 H6          1.1566    3.1656    0.0347 H         1 <0>         0.1435
     39 H7         -0.4482   -0.5633    1.3395 H         1 <0>         0.1475
     40 H8          2.8748   -0.4829   -1.3506 H         1 <0>         0.1405
     41 H9          2.0806   -2.5509   -0.1107 H         1 <0>         0.4242
     42 H10        -0.5986   -4.9940    2.3847 H         1 <0>         0.0906
     43 H11        -2.2091   -4.2739    2.1127 H         1 <0>         0.0913
     44 H12         0.1747   -8.7788   -0.5391 H         1 <0>         0.0690
     45 H13         0.5131   -8.5940    1.2042 H         1 <0>         0.1111
     46 H14        -2.6048   -8.8849   -1.1130 H         1 <0>         0.3974
     47 H15        -3.2658  -11.0162   -1.7988 H         1 <0>         0.3964
     48 H16        -3.1178  -13.0179    0.3222 H         1 <0>         0.1184
     49 H17        -1.5385  -13.3205   -2.2722 H         1 <0>         0.0582
     50 H18        -0.8387  -13.0878   -0.6522 H         1 <0>         0.0807
     51 H19        -0.8403  -15.4853   -1.2849 H         1 <0>         0.0670
     52 H20        -1.9053  -15.1922    0.1109 H         1 <0>         0.0700
     53 H21        -2.8031  -15.4101   -2.7983 H         1 <0>         0.0613
     54 H22        -3.0043  -16.6660   -1.5531 H         1 <0>         0.0664
     55 H23        -5.0822  -15.3403   -1.8238 H         1 <0>         0.0692
     56 H24        -4.3824  -15.1075   -0.2038 H         1 <0>         0.0694
     57 H25        -5.0806  -12.9427   -1.1912 H         1 <0>         0.0693
     58 H26        -4.0156  -13.2358   -2.5869 H         1 <0>         0.0665
@<TRIPOS>BOND
     1    1    6 ar
     2    1    2 ar
     3    1   37 1
     4    2    3 ar
     5    2   38 1
     6    3    4 ar
     7    3   33 1
     8    4    5 ar
     9    4   39 1
    10    5    6 ar
    11    5    7 1
    12    6   40 1
    13    7    8 am
    14    7   41 1
    15    8    9 2
    16    8   10 1
    17   10   11 1
    18   11   12 1
    19   11   17 1
    20   11   13 1
    21   13   14 1
    22   13   42 1
    23   13   43 1
    24   14   15 1
    25   15   16 1
    26   15   21 1
    27   15   17 1
    28   17   18 1
    29   17   19 1
    30   19   20 1
    31   20   21 1
    32   20   44 1
    33   20   45 1
    34   21   22 1
    35   21   23 1
    36   23   24 1
    37   23   46 1
    38   24   25 2
    39   24   26 1
    40   26   27 1
    41   26   47 1
    42   27   32 1
    43   27   28 1
    44   27   48 1
    45   28   29 1
    46   28   49 1
    47   28   50 1
    48   29   30 1
    49   29   51 1
    50   29   52 1
    51   30   31 1
    52   30   53 1
    53   30   54 1
    54   31   32 1
    55   31   55 1
    56   31   56 1
    57   32   57 1
    58   32   58 1
    59   33   34 1
    60   33   35 1
    61   33   36 1
@<TRIPOS>MOLECULE
ZINC14458931
   42    45     0     0     0
SMALL
USER_CHARGES
(3aS,4R,9bS)-4-(4-hydroxy-3-methoxy-phenyl)-3a,4,5,9b-tetrahydro-3H-cyclopenta[c]quinoline-8-carbonitrile
@<TRIPOS>ATOM
      1 C1          3.5070    3.5255    0.4312 C.3       1 <0>         0.0238
      2 O1          2.3060    4.2883    0.2979 O.3       1 <0>        -0.3063
      3 C2          1.1454    3.5933    0.1590 C.ar      1 <0>         0.1057
      4 C3          1.1624    2.2078    0.1512 C.ar      1 <0>        -0.1859
      5 C4         -0.0184    1.5028    0.0103 C.ar      1 <0>        -0.0702
      6 C5         -1.2173    2.1771   -0.1287 C.ar      1 <0>        -0.1240
      7 C6         -1.2420    3.5592   -0.1160 C.ar      1 <0>        -0.1057
      8 C7         -0.0620    4.2719    0.0248 C.ar      1 <0>         0.0780
      9 O2         -0.0840    5.6317    0.0324 O.3       1 <0>        -0.4862
     10 C8          0.0021   -0.0041    0.0020 C.3       1 <0>         0.2026
     11 H1          0.9302   -0.3649   -0.4412 H         1 <0>         0.1046
     12 C9         -0.1464   -0.5382    1.4152 C.3       1 <0>        -0.1030
     13 H2         -0.2164   -1.6259    1.4241 H         1 <0>         0.1006
     14 C10         0.8326   -0.0088    2.4714 C.3       1 <0>        -0.0919
     15 C11        -0.0067   -0.1101    3.7467 C.2       1 <0>        -0.1662
     16 C12        -1.2955   -0.0668    3.4396 C.2       1 <0>        -0.1487
     17 C13        -1.4406    0.1317    1.9746 C.3       1 <0>        -0.0403
     18 H3         -1.3740    1.2003    1.7699 H         1 <0>         0.1020
     19 C14        -2.5938   -0.4102    1.2228 C.ar      1 <0>        -0.1385
     20 C15        -3.8213   -0.6123    1.8051 C.ar      1 <0>        -0.0173
     21 C16        -4.8898   -1.0944    1.0438 C.ar      1 <0>        -0.0883
     22 C17        -4.7023   -1.3709   -0.3140 C.ar      1 <0>        -0.0214
     23 C18        -3.4705   -1.1743   -0.8920 C.ar      1 <0>        -0.1966
     24 C19        -2.4014   -0.6996   -0.1358 C.ar      1 <0>         0.2478
     25 N1         -1.1597   -0.5265   -0.7493 N.pl3     1 <0>        -0.7324
     26 C20        -6.1695   -1.3045    1.6512 C.1       1 <0>         0.2594
     27 N2         -7.1846   -1.4712    2.1330 N.1       1 <0>        -0.4302
     28 H4          3.4382    2.8908    1.3147 H         1 <0>         0.0569
     29 H5          3.6423    2.9033   -0.4535 H         1 <0>         0.0561
     30 H6          4.3566    4.2005    0.5341 H         1 <0>         0.1028
     31 H7          2.0981    1.6786    0.2555 H         1 <0>         0.1348
     32 H8         -2.1371    1.6228   -0.2430 H         1 <0>         0.1325
     33 H9         -2.1804    4.0835   -0.2202 H         1 <0>         0.1371
     34 H10         0.0108    6.0314   -0.8430 H         1 <0>         0.3880
     35 H11         1.7181   -0.6412    2.5352 H         1 <0>         0.0747
     36 H12         1.1079    1.0256    2.2654 H         1 <0>         0.0847
     37 H13         0.3929   -0.2168    4.7444 H         1 <0>         0.1308
     38 H14        -2.1069   -0.1516    4.1473 H         1 <0>         0.1295
     39 H15        -3.9613   -0.3982    2.8544 H         1 <0>         0.1305
     40 H16        -5.5253   -1.7386   -0.9088 H         1 <0>         0.1322
     41 H17        -3.3307   -1.3894   -1.9411 H         1 <0>         0.1317
     42 H18        -1.0566   -0.7536   -1.6867 H         1 <0>         0.4064
@<TRIPOS>BOND
     1    1    2 1
     2    1   28 1
     3    1   29 1
     4    1   30 1
     5    2    3 1
     6    3    8 ar
     7    3    4 ar
     8    4    5 ar
     9    4   31 1
    10    5    6 ar
    11    5   10 1
    12    6    7 ar
    13    6   32 1
    14    7    8 ar
    15    7   33 1
    16    8    9 1
    17    9   34 1
    18   10   11 1
    19   10   25 1
    20   10   12 1
    21   12   13 1
    22   12   17 1
    23   12   14 1
    24   14   15 1
    25   14   35 1
    26   14   36 1
    27   15   16 2
    28   15   37 1
    29   16   17 1
    30   16   38 1
    31   17   18 1
    32   17   19 1
    33   19   24 ar
    34   19   20 ar
    35   20   21 ar
    36   20   39 1
    37   21   22 ar
    38   21   26 1
    39   22   23 ar
    40   22   40 1
    41   23   24 ar
    42   23   41 1
    43   24   25 1
    44   25   42 1
    45   26   27 3
@<TRIPOS>MOLECULE
ZINC37352982
   35    37     0     0     0
SMALL
USER_CHARGES

@<TRIPOS>ATOM
      1 C1         -0.0184    1.5028    0.0103 C.3       1 <0>        -0.0820
      2 C2          0.0021   -0.0041    0.0020 C.2       1 <0>        -0.1261
      3 C3          0.0080   -0.7984   -1.0811 C.2       1 <0>         0.0729
      4 N1          0.0276   -2.1145   -0.6923 N.pl3     1 <0>        -0.4175
      5 C4          0.0349   -2.1983    0.6749 C.ar      1 <0>         0.3635
      6 C5          0.0256   -0.8813    1.1712 C.ar      1 <0>        -0.2607
      7 C6          0.0363   -0.6858    2.5605 C.ar      1 <0>         0.4944
      8 N2          0.0583   -1.7570    3.3484 N.ar      1 <0>        -0.5973
      9 C7          0.0699   -2.9761    2.8401 C.ar      1 <0>         0.3839
     10 N3          0.0521   -3.2065    1.5449 N.ar      1 <0>        -0.5639
     11 C8          0.0948   -4.1516    3.7827 C.3       1 <0>        -0.0811
     12 N4          0.0247    0.5890    3.0972 N.pl3     1 <0>        -0.8298
     13 C9          0.0386   -3.2117   -1.5659 C.ar      1 <0>         0.1181
     14 C10         1.2456   -3.7427   -1.9997 C.ar      1 <0>        -0.0565
     15 C11         1.2546   -4.8235   -2.8596 C.ar      1 <0>        -0.1398
     16 C12         0.0606   -5.3780   -3.2895 C.ar      1 <0>         0.1314
     17 C13        -1.1448   -4.8502   -2.8589 C.ar      1 <0>        -0.1420
     18 C14        -1.1583   -3.7722   -1.9938 C.ar      1 <0>         0.0057
     19 Cl1        -2.6695   -3.1152   -1.4477 Cl        1 <0>        -0.0331
     20 F1          0.0720   -6.4351   -4.1307 F         1 <0>        -0.1238
     21 C15        -0.0053   -0.3168   -2.5090 C.3       1 <0>        -0.0901
     22 H1          1.0042    1.8801    0.0026 H         1 <0>         0.0712
     23 H2         -0.5455    1.8639   -0.8728 H         1 <0>         0.0724
     24 H3         -0.5286    1.8543    0.9071 H         1 <0>         0.0611
     25 H4         -0.9267   -4.4489    4.0198 H         1 <0>         0.0853
     26 H5          0.6154   -4.9848    3.3107 H         1 <0>         0.0844
     27 H6          0.6137   -3.8713    4.6994 H         1 <0>         0.0863
     28 H7          0.0090    1.3619    2.5112 H         1 <0>         0.4105
     29 H8          0.0323    0.7102    4.0596 H         1 <0>         0.4085
     30 H9          2.1772   -3.3107   -1.6651 H         1 <0>         0.1480
     31 H10         2.1937   -5.2364   -3.1973 H         1 <0>         0.1535
     32 H11        -2.0749   -5.2837   -3.1956 H         1 <0>         0.1562
     33 H12         1.0190   -0.1869   -2.8582 H         1 <0>         0.0799
     34 H13        -0.5124   -1.0508   -3.1353 H         1 <0>         0.0678
     35 H14        -0.5323    0.6356   -2.5663 H         1 <0>         0.0888
@<TRIPOS>BOND
     1    1    2 1
     2    1   22 1
     3    1   23 1
     4    1   24 1
     5    2    6 1
     6    2    3 2
     7    3    4 1
     8    3   21 1
     9    4    5 1
    10    4   13 1
    11    5   10 ar
    12    5    6 ar
    13    6    7 ar
    14    7    8 ar
    15    7   12 1
    16    8    9 ar
    17    9   10 ar
    18    9   11 1
    19   11   25 1
    20   11   26 1
    21   11   27 1
    22   12   28 1
    23   12   29 1
    24   13   18 ar
    25   13   14 ar
    26   14   15 ar
    27   14   30 1
    28   15   16 ar
    29   15   31 1
    30   16   17 ar
    31   16   20 1
    32   17   18 ar
    33   17   32 1
    34   18   19 1
    35   21   33 1
    36   21   34 1
    37   21   35 1
@<TRIPOS>MOLECULE
ZINC43391717
   26    28     0     0     0
SMALL
USER_CHARGES

@<TRIPOS>ATOM
      1 C1         -0.0167    1.3785    0.0096 C.2       1 <0>        -0.2385
      2 C2          1.1565    2.0512    0.0020 C.2       1 <0>        -0.1779
      3 S1          2.3279    0.8478   -0.0156 S.3       1 <0>         0.2853
      4 C3          1.2673   -0.5849   -0.0132 C.2       1 <0>        -0.3033
      5 C4          0.0021   -0.0041    0.0020 C.2       1 <0>         0.2726
      6 N1         -1.1677   -0.7656    0.0095 N.pl3     1 <0>        -0.8399
      7 C5          1.6314   -2.0013   -0.0243 C.2       1 <0>         0.4164
      8 N2          2.8584   -2.4856   -0.0328 N.2       1 <0>        -0.5460
      9 C6          2.8190   -3.8258   -0.0417 C.2       1 <0>         0.3035
     10 N3          1.5665   -4.2152   -0.0389 N.2       1 <0>        -0.3321
     11 O1          0.7720   -3.0389   -0.0216 O.3       1 <0>        -0.1075
     12 C7          4.0011   -4.7232   -0.0533 C.ar      1 <0>         0.0160
     13 C8          5.2862   -4.1852   -0.0499 C.ar      1 <0>        -0.0820
     14 C9          6.3847   -5.0236   -0.0608 C.ar      1 <0>         0.0992
     15 C10         6.2089   -6.3993   -0.0755 C.ar      1 <0>         0.0592
     16 C11         4.9309   -6.9383   -0.0793 C.ar      1 <0>         0.0999
     17 C12         3.8281   -6.1056   -0.0618 C.ar      1 <0>        -0.0950
     18 F1          4.7640   -8.2789   -0.0941 F         1 <0>        -0.1102
     19 F2          7.2849   -7.2162   -0.0865 F         1 <0>        -0.1080
     20 F3          7.6312   -4.5027   -0.0576 F         1 <0>        -0.1095
     21 H1         -0.9547    1.9135    0.0259 H         1 <0>         0.1447
     22 H2          1.3063    3.1207    0.0058 H         1 <0>         0.1984
     23 H3         -2.0324   -0.3262    0.0201 H         1 <0>         0.4078
     24 H4         -1.1160   -1.7342    0.0042 H         1 <0>         0.4101
     25 H5          5.4238   -3.1140   -0.0392 H         1 <0>         0.1721
     26 H6          2.8332   -6.5260   -0.0595 H         1 <0>         0.1646
@<TRIPOS>BOND
     1    1    5 1
     2    1    2 2
     3    1   21 1
     4    2    3 1
     5    2   22 1
     6    3    4 1
     7    4    5 2
     8    4    7 1
     9    5    6 1
    10    6   23 1
    11    6   24 1
    12    7   11 1
    13    7    8 2
    14    8    9 1
    15    9   10 2
    16    9   12 1
    17   10   11 1
    18   12   17 ar
    19   12   13 ar
    20   13   14 ar
    21   13   25 1
    22   14   15 ar
    23   14   20 1
    24   15   16 ar
    25   15   19 1
    26   16   17 ar
    27   16   18 1
    28   17   26 1
@<TRIPOS>MOLECULE
ZINC55173674
   44    47     0     0     0
SMALL
USER_CHARGES

@<TRIPOS>ATOM
      1 C1         -3.9995   -0.8725   -1.7114 C.3       1 <0>        -0.0933
      2 C2         -2.8107   -1.6384   -1.1906 C.2       1 <0>         0.2118
      3 C3         -1.6036   -1.6688   -1.8744 C.2       1 <0>        -0.3363
      4 S1         -0.6350   -2.7013   -0.7860 S.3       1 <0>         0.1322
      5 C4         -1.8139   -2.9798    0.3823 C.2       1 <0>         0.3139
      6 N1         -2.8591   -2.3066   -0.0658 N.2       1 <0>        -0.6005
      7 N2         -1.7118   -3.7280    1.5355 N.pl3     1 <0>        -0.7903
      8 C5         -1.2289   -1.0326   -3.1366 C.2       1 <0>         0.6194
      9 O1         -2.0748   -0.4753   -3.8120 O.2       1 <0>        -0.5251
     10 N3          0.0528   -1.0631   -3.5522 N.am      1 <0>        -0.6060
     11 C6          1.0660   -1.7556   -2.7521 C.3       1 <0>         0.0634
     12 C7          0.4328   -0.4038   -4.8040 C.3       1 <0>         0.1689
     13 C8          1.9035   -0.6961   -5.1084 C.3       1 <0>        -0.0931
     14 C9          2.3003   -0.0076   -6.4158 C.3       1 <0>        -0.1037
     15 C10         1.4285   -0.5371   -7.5562 C.3       1 <0>        -0.0891
     16 C11         1.6304   -2.0475   -7.6935 C.3       1 <0>        -0.1076
     17 C12         1.2335   -2.7360   -6.3861 C.3       1 <0>        -0.0854
     18 C13         2.1054   -2.2065   -5.2457 C.3       1 <0>        -0.1300
     19 C14        -0.2371   -2.4437   -6.0817 C.3       1 <0>        -0.1022
     20 C15        -0.4390   -0.9333   -5.9444 C.3       1 <0>        -0.1056
     21 C16        -0.0421   -0.2448   -7.2518 C.3       1 <0>        -0.1050
     22 H1         -3.9717    0.1471   -1.3270 H         1 <0>         0.0810
     23 H2         -3.9691   -0.8510   -2.8008 H         1 <0>         0.0994
     24 H3         -4.9177   -1.3596   -1.3831 H         1 <0>         0.0742
     25 H4         -0.8779   -4.1734    1.7524 H         1 <0>         0.4220
     26 H5         -2.4739   -3.8091    2.1301 H         1 <0>         0.4158
     27 H6          1.0576   -2.8180   -2.9957 H         1 <0>         0.0694
     28 H7          2.0493   -1.3401   -2.9724 H         1 <0>         0.0953
     29 H8          0.8449   -1.6239   -1.6929 H         1 <0>         0.0702
     30 H9          0.2890    0.6722   -4.7062 H         1 <0>         0.0749
     31 H10         2.5246   -0.3189   -4.2960 H         1 <0>         0.0765
     32 H11         2.1565    1.0684   -6.3180 H         1 <0>         0.0648
     33 H12         3.3481   -0.2159   -6.6326 H         1 <0>         0.0678
     34 H13         1.7112   -0.0466   -8.4876 H         1 <0>         0.0711
     35 H14         1.0093   -2.4247   -8.5059 H         1 <0>         0.0614
     36 H15         2.6781   -2.2557   -7.9103 H         1 <0>         0.0607
     37 H16         1.3774   -3.8121   -6.4839 H         1 <0>         0.0676
     38 H17         3.1531   -2.4148   -5.4626 H         1 <0>         0.0642
     39 H18         1.8226   -2.6971   -4.3143 H         1 <0>         0.0797
     40 H19        -0.8582   -2.8209   -6.8941 H         1 <0>         0.0605
     41 H20        -0.5199   -2.9342   -5.1503 H         1 <0>         0.0572
     42 H21        -1.4867   -0.7250   -5.7276 H         1 <0>         0.1015
     43 H22        -0.1860    0.8313   -7.1540 H         1 <0>         0.0632
     44 H23        -0.6633   -0.6220   -8.0642 H         1 <0>         0.0655
@<TRIPOS>BOND
     1    1    2 1
     2    1   22 1
     3    1   23 1
     4    1   24 1
     5    2    6 1
     6    2    3 2
     7    3    4 1
     8    3    8 1
     9    4    5 1
    10    5    6 2
    11    5    7 1
    12    7   25 1
    13    7   26 1
    14    8    9 2
    15    8   10 am
    16   10   11 1
    17   10   12 1
    18   11   27 1
    19   11   28 1
    20   11   29 1
    21   12   20 1
    22   12   13 1
    23   12   30 1
    24   13   18 1
    25   13   14 1
    26   13   31 1
    27   14   15 1
    28   14   32 1
    29   14   33 1
    30   15   21 1
    31   15   16 1
    32   15   34 1
    33   16   17 1
    34   16   35 1
    35   16   36 1
    36   17   18 1
    37   17   19 1
    38   17   37 1
    39   18   38 1
    40   18   39 1
    41   19   20 1
    42   19   40 1
    43   19   41 1
    44   20   21 1
    45   20   42 1
    46   21   43 1
    47   21   44 1
@<TRIPOS>MOLECULE
ZINC08974444
   37    40     0     0     0
SMALL
USER_CHARGES

@<TRIPOS>ATOM
      1 C1         -0.0166    1.3761    0.0096 C.ar      1 <0>        -0.1172
      2 C2          1.1733    2.0801    0.0020 C.ar      1 <0>        -0.1185
      3 C3          2.3742    1.4000   -0.0110 C.ar      1 <0>        -0.1136
      4 C4          2.3947    0.0129   -0.0179 C.ar      1 <0>        -0.0809
      5 C5          1.2082   -0.6884   -0.0140 C.ar      1 <0>        -0.0697
      6 C6          0.0021   -0.0041    0.0020 C.ar      1 <0>        -0.1172
      7 C7          1.1797   -2.1951   -0.0327 C.3       1 <0>        -0.0673
      8 C8          2.5482   -2.7481    0.3660 C.3       1 <0>         0.0794
      9 H1          2.7300   -2.5489    1.4221 H         1 <0>         0.0744
     10 N1          3.5770   -2.0806   -0.4473 N.3       1 <0>        -0.6610
     11 C9          3.7299   -0.6843   -0.0265 C.3       1 <0>         0.0977
     12 C10         2.5858   -4.2340    0.1173 C.2       1 <0>         0.5088
     13 O1          3.1205   -4.6684   -0.8807 O.2       1 <0>        -0.4416
     14 N2          2.0252   -5.0801    1.0041 N.am      1 <0>        -0.6184
     15 C11         2.0598   -6.4460    0.7755 C.2       1 <0>         0.3724
     16 N3          2.5912   -7.0990   -0.2316 N.2       1 <0>        -0.5054
     17 C12         2.5507   -8.4456   -0.3260 C.ar      1 <0>         0.1010
     18 C13         3.0795   -9.2655   -1.3499 C.ar      1 <0>        -0.0647
     19 C14         2.9498  -10.6284   -1.2925 C.ar      1 <0>        -0.1055
     20 C15         2.3005  -11.2512   -0.2362 C.ar      1 <0>        -0.1000
     21 C16         1.7717  -10.4804    0.7827 C.ar      1 <0>        -0.0624
     22 C17         1.8964   -9.1144    0.7335 C.ar      1 <0>        -0.1480
     23 S1          1.3991   -7.7679    1.7807 S.3       1 <0>         0.0026
     24 H2         -0.9583    1.9047    0.0259 H         1 <0>         0.1241
     25 H3          1.1631    3.1601    0.0059 H         1 <0>         0.1243
     26 H4          3.3031    1.9508   -0.0162 H         1 <0>         0.1239
     27 H5         -0.9274   -0.5539    0.0085 H         1 <0>         0.1233
     28 H6          0.4266   -2.5516    0.6701 H         1 <0>         0.0853
     29 H7          0.9284   -2.5398   -1.0358 H         1 <0>         0.0934
     30 H8          4.4562   -2.5728   -0.3933 H         1 <0>         0.3578
     31 H9          4.3997   -0.1713   -0.7167 H         1 <0>         0.0981
     32 H10         4.1583   -0.6548    0.9753 H         1 <0>         0.0502
     33 H11         1.5975   -4.7326    1.8024 H         1 <0>         0.4296
     34 H12         3.5908   -8.8124   -2.1863 H         1 <0>         0.1348
     35 H13         3.3621  -11.2316   -2.0878 H         1 <0>         0.1359
     36 H14         2.2089  -12.3270   -0.2102 H         1 <0>         0.1402
     37 H15         1.2637  -10.9502    1.6120 H         1 <0>         0.1346
@<TRIPOS>BOND
     1    1    6 ar
     2    1    2 ar
     3    1   24 1
     4    2    3 ar
     5    2   25 1
     6    3    4 ar
     7    3   26 1
     8    4   11 1
     9    4    5 ar
    10    5    6 ar
    11    5    7 1
    12    6   27 1
    13    7    8 1
    14    7   28 1
    15    7   29 1
    16    8    9 1
    17    8   10 1
    18    8   12 1
    19   10   11 1
    20   10   30 1
    21   11   31 1
    22   11   32 1
    23   12   13 2
    24   12   14 am
    25   14   15 1
    26   14   33 1
    27   15   23 1
    28   15   16 2
    29   16   17 1
    30   17   22 ar
    31   17   18 ar
    32   18   19 ar
    33   18   34 1
    34   19   20 ar
    35   19   35 1
    36   20   21 ar
    37   20   36 1
    38   21   22 ar
    39   21   37 1
    40   22   23 1
@<TRIPOS>MOLECULE
ZINC04038051
   47    49     0     0     0
SMALL
USER_CHARGES
1-cyclohexyl-4,5-dimethyl-3-phenylsulfonyl-pyrrol-2-amine
@<TRIPOS>ATOM
      1 C1         -3.4223    4.6152    0.0433 C.3       1 <0>        -0.0931
      2 C2         -2.7729    3.2553    0.0329 C.2       1 <0>        -0.0556
      3 C3         -3.4104    2.0684    0.0295 C.2       1 <0>        -0.0088
      4 N1         -2.4675    1.0737    0.0196 N.pl3     1 <0>        -0.4546
      5 C4         -1.2287    1.6469    0.0168 C.2       1 <0>         0.4453
      6 C5         -1.3875    2.9934    0.0308 C.2       1 <0>        -0.7923
      7 S1         -0.0990    4.1953    0.0403 S.o2      1 <0>         2.6125
      8 O1         -0.6502    5.3771    0.6048 O.2       1 <0>        -0.9401
      9 O2          1.0487    3.5559    0.5818 O.2       1 <0>        -0.9588
     10 C6          0.2779    4.5682   -1.6400 C.ar      1 <0>        -0.6558
     11 C7          1.2464    3.8428   -2.3085 C.ar      1 <0>        -0.0262
     12 C8          1.5387    4.1322   -3.6283 C.ar      1 <0>        -0.1406
     13 C9          0.8700    5.1539   -4.2763 C.ar      1 <0>        -0.0675
     14 C10        -0.0948    5.8827   -3.6062 C.ar      1 <0>        -0.1391
     15 C11        -0.3908    5.5898   -2.2881 C.ar      1 <0>        -0.0204
     16 N2         -0.0111    0.9658    0.0074 N.pl3     1 <0>        -0.8581
     17 C12        -2.7432   -0.3651    0.0127 C.3       1 <0>         0.1299
     18 C13        -2.1253   -1.0088    1.2555 C.3       1 <0>        -0.1351
     19 C14        -2.4133   -2.5114    1.2483 C.3       1 <0>        -0.1166
     20 C15        -1.8065   -3.1409   -0.0073 C.3       1 <0>        -0.1255
     21 C16        -2.4245   -2.4972   -1.2502 C.3       1 <0>        -0.1166
     22 C17        -2.1365   -0.9946   -1.2429 C.3       1 <0>        -0.1340
     23 C18        -4.9041    1.8686    0.0359 C.3       1 <0>        -0.0782
     24 H1         -3.5745    4.9373    1.0735 H         1 <0>         0.0752
     25 H2         -2.7780    5.3294   -0.4693 H         1 <0>         0.0688
     26 H3         -4.3842    4.5623   -0.4667 H         1 <0>         0.0651
     27 H4          1.7720    3.0476   -1.8009 H         1 <0>         0.1358
     28 H5          2.2927    3.5631   -4.1517 H         1 <0>         0.1318
     29 H6          1.1015    5.3829   -5.3060 H         1 <0>         0.1305
     30 H7         -0.6170    6.6811   -4.1124 H         1 <0>         0.1335
     31 H8         -1.1443    6.1594   -1.7644 H         1 <0>         0.1415
     32 H9          0.0021   -0.0041    0.0020 H         1 <0>         0.4006
     33 H10         0.8223    1.4622    0.0021 H         1 <0>         0.4246
     34 H11        -3.8209   -0.5285    0.0165 H         1 <0>         0.1065
     35 H12        -1.0476   -0.8454    1.2516 H         1 <0>         0.0702
     36 H13        -2.5576   -0.5603    2.1500 H         1 <0>         0.0751
     37 H14        -3.4910   -2.6748    1.2522 H         1 <0>         0.0680
     38 H15        -1.9731   -2.9700    2.1337 H         1 <0>         0.0727
     39 H16        -2.0117   -4.2114   -0.0125 H         1 <0>         0.0701
     40 H17        -0.7289   -2.9775   -0.0112 H         1 <0>         0.0643
     41 H18        -3.5021   -2.6606   -1.2463 H         1 <0>         0.0680
     42 H19        -1.9922   -2.9457   -2.1446 H         1 <0>         0.0721
     43 H20        -2.5767   -0.5360   -2.1283 H         1 <0>         0.0739
     44 H21        -1.0588   -0.8312   -1.2468 H         1 <0>         0.0694
     45 H22        -5.2591    1.8151    1.0651 H         1 <0>         0.0699
     46 H23        -5.3848    2.7052   -0.4712 H         1 <0>         0.0821
     47 H24        -5.1489    0.9410   -0.4815 H         1 <0>         0.0599
@<TRIPOS>BOND
     1    1    2 1
     2    1   24 1
     3    1   25 1
     4    1   26 1
     5    2    6 1
     6    2    3 2
     7    3    4 1
     8    3   23 1
     9    4    5 1
    10    4   17 1
    11    5    6 2
    12    5   16 1
    13    6    7 1
    14    7    8 2
    15    7    9 2
    16    7   10 1
    17   10   15 ar
    18   10   11 ar
    19   11   12 ar
    20   11   27 1
    21   12   13 ar
    22   12   28 1
    23   13   14 ar
    24   13   29 1
    25   14   15 ar
    26   14   30 1
    27   15   31 1
    28   16   32 1
    29   16   33 1
    30   17   22 1
    31   17   18 1
    32   17   34 1
    33   18   19 1
    34   18   35 1
    35   18   36 1
    36   19   20 1
    37   19   37 1
    38   19   38 1
    39   20   21 1
    40   20   39 1
    41   20   40 1
    42   21   22 1
    43   21   41 1
    44   21   42 1
    45   22   43 1
    46   22   44 1
    47   23   45 1
    48   23   46 1
    49   23   47 1
@<TRIPOS>MOLECULE
ZINC20542371
   31    33     0     0     0
SMALL
USER_CHARGES
1-(4-bromophenyl)-3-(4-cyclopropylthiazol-2-yl)urea
@<TRIPOS>ATOM
      1 C1         -5.6269   -1.5390    0.8457 C.ar      1 <0>        -0.1373
      2 C2         -6.9160   -1.0588    0.9682 C.ar      1 <0>        -0.0702
      3 C3         -7.2643    0.1477    0.3874 C.ar      1 <0>        -0.1053
      4 C4         -6.3212    0.8792   -0.3125 C.ar      1 <0>        -0.0694
      5 C5         -5.0292    0.4066   -0.4332 C.ar      1 <0>        -0.1157
      6 C6         -4.6769   -0.8041    0.1487 C.ar      1 <0>         0.1785
      7 N1         -3.3682   -1.2855    0.0280 N.am      1 <0>        -0.6850
      8 C7         -2.3311   -0.4246    0.0242 C.2       1 <0>         0.7115
      9 O1         -2.5358    0.7737    0.0409 O.2       1 <0>        -0.5401
     10 N2         -1.0673   -0.8922    0.0020 N.am      1 <0>        -0.6314
     11 C8          0.0022   -0.0044   -0.0020 C.2       1 <0>         0.3069
     12 N3          1.2949   -0.2645   -0.0222 N.2       1 <0>        -0.5504
     13 C9          2.1873    0.7067   -0.0224 C.2       1 <0>         0.0951
     14 C10         1.7472    1.9883   -0.0013 C.2       1 <0>        -0.2761
     15 S1         -0.0210    1.7318    0.0191 S.3       1 <0>         0.1539
     16 C11         3.6622    0.3984   -0.0451 C.3       1 <0>        -0.1805
     17 C12         4.6155    1.5337   -0.4235 C.3       1 <0>        -0.1182
     18 C13         4.3609    0.3880   -1.4062 C.3       1 <0>        -0.1148
     19 Br1        -9.0322    0.7984    0.5510 Br        1 <0>        -0.0475
     20 H1         -5.3567   -2.4830    1.2955 H         1 <0>         0.1368
     21 H2         -7.6540   -1.6277    1.5142 H         1 <0>         0.1387
     22 H3         -6.5956    1.8209   -0.7645 H         1 <0>         0.1377
     23 H4         -4.2933    0.9781   -0.9793 H         1 <0>         0.1495
     24 H5         -3.1861   -2.3664   -0.0638 H         1 <0>         0.4394
     25 H6         -0.8822   -1.9764   -0.0130 H         1 <0>         0.4492
     26 H7          2.3099    2.9101    0.0023 H         1 <0>         0.1935
     27 H8          3.5754   -0.3043    0.7967 H         1 <0>         0.1340
     28 H9          4.0708    2.4893   -0.4113 H         1 <0>         0.1034
     29 H10         5.4430    1.5742    0.3001 H         1 <0>         0.1083
     30 H11         4.9780   -0.5183   -1.4946 H         1 <0>         0.1064
     31 H12         3.6058    0.3969   -2.2061 H         1 <0>         0.0993
@<TRIPOS>BOND
     1    1    6 ar
     2    1    2 ar
     3    1   20 1
     4    2    3 ar
     5    2   21 1
     6    3    4 ar
     7    3   19 1
     8    4    5 ar
     9    4   22 1
    10    5    6 ar
    11    5   23 1
    12    6    7 1
    13    7    8 am
    14    7   24 1
    15    8    9 2
    16    8   10 am
    17   10   11 1
    18   10   25 1
    19   11   15 1
    20   11   12 2
    21   12   13 1
    22   13   14 2
    23   13   16 1
    24   14   15 1
    25   14   26 1
    26   16   18 1
    27   16   17 1
    28   16   27 1
    29   17   18 1
    30   17   28 1
    31   17   29 1
    32   18   30 1
    33   18   31 1
@<TRIPOS>MOLECULE
ZINC40097441
   34    35     0     0     0
SMALL
USER_CHARGES

@<TRIPOS>ATOM
      1 C1         -0.0515    1.4956   -0.0395 C.3       1 <0>        -0.0768
      2 C2         -0.0257   -0.0112   -0.0418 C.2       1 <0>        -0.0049
      3 C3         -1.1033   -0.8163   -0.0450 C.2       1 <0>        -0.2121
      4 C4         -0.6214   -2.1455   -0.0462 C.2       1 <0>        -0.1830
      5 C5          0.7218   -2.0731   -0.0436 C.2       1 <0>        -0.0349
      6 O1          1.0770   -0.7778   -0.0468 O.3       1 <0>        -0.1734
      7 C6          1.6677   -3.2462   -0.0429 C.3       1 <0>         0.2512
      8 H1          1.1446   -4.1349   -0.3962 H         1 <0>         0.1200
      9 C7          2.1801   -3.4874    1.3784 C.3       1 <0>        -0.1656
     10 N1          2.7996   -2.9615   -0.9283 N.am      1 <0>        -0.7343
     11 C8          3.4894   -3.9753   -1.4876 C.2       1 <0>         0.7114
     12 O2          3.1722   -5.1263   -1.2573 O.2       1 <0>        -0.5663
     13 N2          4.5306   -3.7134   -2.3022 N.am      1 <0>        -0.6823
     14 C9          5.3055   -4.7650   -2.8090 C.ar      1 <0>         0.1514
     15 C10         4.7109   -5.9801   -3.1193 C.ar      1 <0>        -0.0887
     16 C11         5.4768   -7.0154   -3.6193 C.ar      1 <0>        -0.0779
     17 C12         6.8361   -6.8431   -3.8109 C.ar      1 <0>        -0.0828
     18 C13         7.4332   -5.6338   -3.5026 C.ar      1 <0>        -0.1058
     19 C14         6.6707   -4.5916   -3.0076 C.ar      1 <0>         0.0769
     20 F1          7.2524   -3.4087   -2.7116 F         1 <0>        -0.1304
     21 Br1         7.8801   -8.2636   -4.4951 Br        1 <0>        -0.0334
     22 H2          0.9698    1.8765   -0.0421 H         1 <0>         0.0763
     23 H3         -0.5742    1.8514   -0.9274 H         1 <0>         0.0873
     24 H4         -0.5687    1.8488    0.8525 H         1 <0>         0.0877
     25 H5         -2.1380   -0.5069   -0.0459 H         1 <0>         0.1512
     26 H6         -1.2173   -3.0462   -0.0483 H         1 <0>         0.1521
     27 H7          2.7032   -2.5988    1.7317 H         1 <0>         0.0625
     28 H8          1.3380   -3.6993    2.0372 H         1 <0>         0.0753
     29 H9          2.8643   -4.3360    1.3789 H         1 <0>         0.0744
     30 H10         3.0525   -2.0433   -1.1121 H         1 <0>         0.4042
     31 H11         4.7436   -2.7968   -2.5376 H         1 <0>         0.4130
     32 H12         3.6500   -6.1163   -2.9695 H         1 <0>         0.1618
     33 H13         5.0138   -7.9608   -3.8607 H         1 <0>         0.1453
     34 H14         8.4946   -5.5021   -3.6529 H         1 <0>         0.1506
@<TRIPOS>BOND
     1    1    2 1
     2    1   22 1
     3    1   23 1
     4    1   24 1
     5    2    6 1
     6    2    3 2
     7    3    4 1
     8    3   25 1
     9    4    5 2
    10    4   26 1
    11    5    6 1
    12    5    7 1
    13    7    8 1
    14    7    9 1
    15    7   10 1
    16    9   27 1
    17    9   28 1
    18    9   29 1
    19   10   11 am
    20   10   30 1
    21   11   12 2
    22   11   13 am
    23   13   14 1
    24   13   31 1
    25   14   19 ar
    26   14   15 ar
    27   15   16 ar
    28   15   32 1
    29   16   17 ar
    30   16   33 1
    31   17   18 ar
    32   17   21 1
    33   18   19 ar
    34   18   34 1
    35   19   20 1
@<TRIPOS>MOLECULE
ZINC04553415
   48    51     0     0     0
SMALL
USER_CHARGES

@<TRIPOS>ATOM
      1 C1         -0.0187    1.5258    0.0104 C.3       1 <0>        -0.1573
      2 C2          0.0021   -0.0041    0.0020 C.3       1 <0>        -0.1163
      3 C3          0.7421   -0.5109    1.2415 C.3       1 <0>        -0.0572
      4 C4          2.1775    0.0187    1.2307 C.3       1 <0>        -0.1470
      5 C5          0.0259   -0.0175    2.5003 C.3       1 <0>        -0.1500
      6 C6          0.7628   -2.0407    1.2331 C.3       1 <0>        -0.0682
      7 H1          1.2727   -2.3941    0.3369 H         1 <0>         0.0748
      8 C7          1.4976   -2.5507    2.4762 C.3       1 <0>        -0.1184
      9 C8          1.7403   -4.0566    2.3565 C.3       1 <0>        -0.0569
     10 C9          0.4186   -4.7411    2.0377 C.2       1 <0>        -0.0305
     11 C10        -0.6310   -4.0417    1.5488 C.2       1 <0>        -0.2168
     12 S1         -1.9172   -5.2427    1.3404 S.3       1 <0>         0.2038
     13 C11        -1.1159   -6.5961    1.8649 C.2       1 <0>         0.0993
     14 C12         0.1648   -6.1583    2.2219 C.2       1 <0>        -0.2577
     15 C13         1.1131   -7.1725    2.7505 C.2       1 <0>         0.4749
     16 N1          0.7908   -8.4306    2.6174 N.2       1 <0>        -0.6420
     17 C14        -0.4021   -8.9097    1.9307 C.3       1 <0>         0.4451
     18 H2         -0.7409   -9.8300    2.4063 H         1 <0>         0.1295
     19 N2         -1.4906   -7.9164    1.9748 N.pl3     1 <0>        -0.7032
     20 C15        -0.0590   -9.1976    0.4918 C.2       1 <0>        -0.0545
     21 C16         1.1404   -9.5998    0.0344 C.2       1 <0>        -0.1767
     22 C17         1.0155   -9.7493   -1.3660 C.2       1 <0>        -0.2166
     23 C18        -0.2526   -9.4296   -1.6806 C.2       1 <0>        -0.0382
     24 O1         -0.9004   -9.1018   -0.5506 O.3       1 <0>        -0.1693
     25 O2          2.2700   -6.8052    3.3483 O.3       1 <0>        -0.4495
     26 C19        -0.6770   -2.5749    1.2504 C.3       1 <0>        -0.0285
     27 H3          1.0039    1.9031    0.0027 H         1 <0>         0.0565
     28 H4         -0.5459    1.8868   -0.8726 H         1 <0>         0.0511
     29 H5         -0.5289    1.8773    0.9072 H         1 <0>         0.0570
     30 H6         -1.0205   -0.3814    0.0098 H         1 <0>         0.0635
     31 H7          0.5123   -0.3556   -0.8948 H         1 <0>         0.0612
     32 H8          2.1627    1.1086    1.2367 H         1 <0>         0.0586
     33 H9          2.7046   -0.3424    2.1137 H         1 <0>         0.0587
     34 H10         2.6876   -0.3328    0.3339 H         1 <0>         0.0542
     35 H11        -0.9967   -0.3948    2.5081 H         1 <0>         0.0578
     36 H12         0.5531   -0.3786    3.3834 H         1 <0>         0.0577
     37 H13         0.0111    1.0724    2.5063 H         1 <0>         0.0578
     38 H14         2.4540   -2.0360    2.5680 H         1 <0>         0.0744
     39 H15         0.8937   -2.3505    3.3613 H         1 <0>         0.0680
     40 H16         2.4541   -4.2493    1.5556 H         1 <0>         0.0757
     41 H17         2.1324   -4.4397    3.2986 H         1 <0>         0.0852
     42 H18        -2.4190   -8.1784    2.0759 H         1 <0>         0.4187
     43 H19         2.0284   -9.7743    0.6237 H         1 <0>         0.1494
     44 H20         1.7899  -10.0602   -2.0516 H         1 <0>         0.1491
     45 H21        -0.6787   -9.4388   -2.6729 H         1 <0>         0.2032
     46 H22         2.8084   -7.5484    3.6533 H         1 <0>         0.4077
     47 H23        -1.2497   -2.0623    2.0232 H         1 <0>         0.0843
     48 H24        -1.1415   -2.4102    0.2781 H         1 <0>         0.0777
@<TRIPOS>BOND
     1    1    2 1
     2    1   27 1
     3    1   28 1
     4    1   29 1
     5    2    3 1
     6    2   30 1
     7    2   31 1
     8    3    4 1
     9    3    5 1
    10    3    6 1
    11    4   32 1
    12    4   33 1
    13    4   34 1
    14    5   35 1
    15    5   36 1
    16    5   37 1
    17    6    7 1
    18    6   26 1
    19    6    8 1
    20    8    9 1
    21    8   38 1
    22    8   39 1
    23    9   10 1
    24    9   40 1
    25    9   41 1
    26   10   14 1
    27   10   11 2
    28   11   12 1
    29   11   26 1
    30   12   13 1
    31   13   19 1
    32   13   14 2
    33   14   15 1
    34   15   16 2
    35   15   25 1
    36   16   17 1
    37   17   18 1
    38   17   19 1
    39   17   20 1
    40   19   42 1
    41   20   24 1
    42   20   21 2
    43   21   22 1
    44   21   43 1
    45   22   23 2
    46   22   44 1
    47   23   24 1
    48   23   45 1
    49   25   46 1
    50   26   47 1
    51   26   48 1
@<TRIPOS>MOLECULE
ZINC62027314
   41    44     0     0     0
SMALL
USER_CHARGES

@<TRIPOS>ATOM
      1 C1          0.1571    1.1149    1.1891 C.ar      1 <0>        -0.0494
      2 C2          1.3414    1.8214    1.1721 C.ar      1 <0>        -0.0968
      3 C3          2.4590    1.2901    0.5505 C.ar      1 <0>        -0.0650
      4 C4          2.3952    0.0475   -0.0574 C.ar      1 <0>        -0.0971
      5 C5          1.2168   -0.6688   -0.0467 C.ar      1 <0>        -0.0795
      6 C6          0.0866   -0.1386    0.5784 C.ar      1 <0>        -0.1235
      7 C7         -1.1792   -0.9010    0.5935 C.2       1 <0>         0.5614
      8 O1         -2.1618   -0.4369    1.1385 O.2       1 <0>        -0.5103
      9 N1         -1.2442   -2.1108    0.0031 N.am      1 <0>        -0.6649
     10 C8         -2.4128   -2.8755    0.1010 C.ar      1 <0>         0.1231
     11 C9         -3.6551   -2.2541    0.1051 C.ar      1 <0>        -0.0815
     12 C10        -4.8071   -3.0049    0.2023 C.ar      1 <0>        -0.1175
     13 C11        -4.7352   -4.3932    0.2966 C.ar      1 <0>         0.1322
     14 C12        -3.4869   -5.0076    0.2898 C.ar      1 <0>        -0.1092
     15 C13        -2.3356   -4.2603    0.1886 C.ar      1 <0>        -0.0841
     16 C14        -3.7520   -6.4843    0.3998 C.3       1 <0>        -0.0547
     17 C15        -3.0926   -7.0725    1.6551 C.3       1 <0>        -0.0957
     18 C16        -2.6510   -8.4929    1.2168 C.3       1 <0>        -0.1259
     19 C17        -2.1915   -8.2747   -0.2469 C.3       1 <0>        -0.1216
     20 C18        -3.1923   -7.2408   -0.8084 C.3       1 <0>        -0.0987
     21 C19        -5.2516   -6.6044    0.4705 C.2       1 <0>         0.5393
     22 O2         -5.8912   -7.6304    0.5680 O.2       1 <0>        -0.4916
     23 N2         -5.7454   -5.3537    0.4046 N.am      1 <0>        -0.6619
     24 Br1         4.0787    2.2658    0.5311 Br        1 <0>        -0.0359
     25 H1         -0.7127    1.5285    1.6778 H         1 <0>         0.1485
     26 H2          1.3972    2.7911    1.6441 H         1 <0>         0.1436
     27 H3          3.2700   -0.3613   -0.5412 H         1 <0>         0.1426
     28 H4          1.1682   -1.6377   -0.5214 H         1 <0>         0.1363
     29 H5         -0.4814   -2.4517   -0.4896 H         1 <0>         0.4116
     30 H6         -3.7187   -1.1784    0.0323 H         1 <0>         0.1487
     31 H7         -5.7695   -2.5149    0.2057 H         1 <0>         0.1327
     32 H8         -1.3727   -4.7494    0.1818 H         1 <0>         0.1335
     33 H9         -2.2279   -6.4768    1.9473 H         1 <0>         0.0823
     34 H10        -3.8114   -7.1311    2.4724 H         1 <0>         0.0713
     35 H11        -1.8241   -8.8471    1.8322 H         1 <0>         0.0737
     36 H12        -3.4898   -9.1878    1.2584 H         1 <0>         0.0753
     37 H13        -1.1771   -7.8767   -0.2729 H         1 <0>         0.0699
     38 H14        -2.2509   -9.2071   -0.8083 H         1 <0>         0.0725
     39 H15        -3.9981   -7.7491   -1.3380 H         1 <0>         0.0738
     40 H16        -2.6806   -6.5500   -1.4785 H         1 <0>         0.0783
     41 H17        -6.6920   -5.1434    0.4298 H         1 <0>         0.4142
@<TRIPOS>BOND
     1    1    6 ar
     2    1    2 ar
     3    1   25 1
     4    2    3 ar
     5    2   26 1
     6    3    4 ar
     7    3   24 1
     8    4    5 ar
     9    4   27 1
    10    5    6 ar
    11    5   28 1
    12    6    7 1
    13    7    8 2
    14    7    9 am
    15    9   10 1
    16    9   29 1
    17   10   15 ar
    18   10   11 ar
    19   11   12 ar
    20   11   30 1
    21   12   13 ar
    22   12   31 1
    23   13   23 1
    24   13   14 ar
    25   14   15 ar
    26   14   16 1
    27   15   32 1
    28   16   20 1
    29   16   17 1
    30   16   21 1
    31   17   18 1
    32   17   33 1
    33   17   34 1
    34   18   19 1
    35   18   35 1
    36   18   36 1
    37   19   20 1
    38   19   37 1
    39   19   38 1
    40   20   39 1
    41   20   40 1
    42   21   22 2
    43   21   23 am
    44   23   41 1
@<TRIPOS>MOLECULE
ZINC00141735
   25    26     0     0     0
SMALL
USER_CHARGES
1-(4-chlorophenyl)-3-(2,5-dichloro-3-thienyl)-urea
@<TRIPOS>ATOM
      1 C1          2.7040   -2.9771    0.7680 C.ar      1 <0>        -0.1056
      2 C2          2.7578   -4.3571    0.7529 C.ar      1 <0>        -0.0902
      3 C3          3.8170   -5.0027    0.1395 C.ar      1 <0>        -0.0482
      4 C4          4.8213   -4.2680   -0.4660 C.ar      1 <0>        -0.0905
      5 C5          4.7690   -2.8879   -0.4591 C.ar      1 <0>        -0.1310
      6 C6          3.7074   -2.2376    0.1561 C.ar      1 <0>         0.1629
      7 N1          3.6520   -0.8389    0.1645 N.am      1 <0>        -0.6785
      8 C7          2.4626   -0.2111    0.0759 C.2       1 <0>         0.7085
      9 O1          1.4328   -0.8578    0.0689 O.2       1 <0>        -0.5496
     10 N2          2.4147    1.1334   -0.0050 N.am      1 <0>        -0.6701
     11 C8          1.1709    1.7954   -0.0027 C.2       1 <0>         0.1655
     12 C9          0.0630    1.2176   -0.6037 C.2       1 <0>        -0.1322
     13 C10        -1.1164    1.8869   -0.5873 C.2       1 <0>        -0.1029
     14 S1         -0.6889    3.3736    0.3035 S.3       1 <0>         0.1684
     15 C11         1.0359    3.0124    0.5884 C.2       1 <0>        -0.1651
     16 Cl1         2.2316    3.9680    1.4075 Cl        1 <0>         0.0306
     17 Cl2        -2.6476    1.4175   -1.2571 Cl        1 <0>         0.0356
     18 Cl3         3.8858   -6.7373    0.1291 Cl        1 <0>        -0.0676
     19 H1          1.8798   -2.4737    1.2513 H         1 <0>         0.1502
     20 H2          1.9750   -4.9328    1.2242 H         1 <0>         0.1383
     21 H3          5.6465   -4.7743   -0.9447 H         1 <0>         0.1391
     22 H4          5.5528   -2.3150   -0.9321 H         1 <0>         0.1362
     23 H5          4.4695   -0.3215    0.2340 H         1 <0>         0.4119
     24 H6          3.2365    1.6453   -0.0647 H         1 <0>         0.4135
     25 H7          0.1391    0.2519   -1.0812 H         1 <0>         0.1707
@<TRIPOS>BOND
     1    1    6 ar
     2    1    2 ar
     3    1   19 1
     4    2    3 ar
     5    2   20 1
     6    3    4 ar
     7    3   18 1
     8    4    5 ar
     9    4   21 1
    10    5    6 ar
    11    5   22 1
    12    6    7 1
    13    7    8 am
    14    7   23 1
    15    8    9 2
    16    8   10 am
    17   10   11 1
    18   10   24 1
    19   11   15 2
    20   11   12 1
    21   12   13 2
    22   12   25 1
    23   13   14 1
    24   13   17 1
    25   14   15 1
    26   15   16 1
@<TRIPOS>MOLECULE
ZINC19759608
   49    51     0     0     0
SMALL
USER_CHARGES
4-[(4-isopropylphenyl)methyl]-2,2-dimethyl-3H-1,4-benzoxazin-6-amine
@<TRIPOS>ATOM
      1 C1         -8.2564   -2.2127    1.2468 C.3       1 <0>        -0.1461
      2 C2         -7.0459   -3.1391    1.1146 C.3       1 <0>        -0.0592
      3 C3         -7.1845   -3.9813   -0.1552 C.3       1 <0>        -0.1459
      4 C4         -5.7878   -2.3133    1.0347 C.ar      1 <0>        -0.0703
      5 C5         -4.7978   -2.4682    1.9870 C.ar      1 <0>        -0.1183
      6 C6         -3.6433   -1.7115    1.9132 C.ar      1 <0>        -0.1088
      7 C7         -3.4787   -0.8001    0.8870 C.ar      1 <0>        -0.0947
      8 C8         -4.4709   -0.6415   -0.0623 C.ar      1 <0>        -0.0931
      9 C9         -5.6235   -1.4013    0.0090 C.ar      1 <0>        -0.1149
     10 C10        -2.2201    0.0248    0.8066 C.3       1 <0>         0.0986
     11 N1         -1.2175   -0.6885    0.0042 N.pl3     1 <0>        -0.4771
     12 C11        -1.0622   -2.0728    0.4660 C.3       1 <0>         0.0276
     13 C12         0.0793   -2.7269   -0.3232 C.3       1 <0>         0.1133
     14 O1          1.2867   -2.0224   -0.0156 O.3       1 <0>        -0.3108
     15 C13         1.2197   -0.6613   -0.0234 C.ar      1 <0>         0.0303
     16 C14        -0.0017    0.0025   -0.0085 C.ar      1 <0>         0.0960
     17 C15        -0.0280    1.3928   -0.0101 C.ar      1 <0>        -0.2134
     18 C16         1.1571    2.1128   -0.0281 C.ar      1 <0>         0.2239
     19 C17         2.3740    1.4447   -0.0455 C.ar      1 <0>        -0.1964
     20 C18         2.4025    0.0633   -0.0437 C.ar      1 <0>        -0.0736
     21 N2          1.1265    3.5117   -0.0288 N.pl3     1 <0>        -0.9007
     22 C19         0.2175   -4.1945    0.0866 C.3       1 <0>        -0.1405
     23 C20        -0.2075   -2.6321   -1.8231 C.3       1 <0>        -0.1636
     24 H1         -8.1567   -1.6072    2.1597 H         1 <0>         0.0562
     25 H2         -9.1747   -2.8154    1.3050 H         1 <0>         0.0597
     26 H3         -8.3079   -1.5495    0.3707 H         1 <0>         0.0576
     27 H4         -6.9802   -3.7965    1.9941 H         1 <0>         0.0778
     28 H5         -6.3142   -4.6473   -0.2502 H         1 <0>         0.0563
     29 H6         -7.2361   -3.3181   -1.0312 H         1 <0>         0.0576
     30 H7         -8.1029   -4.5840   -0.0970 H         1 <0>         0.0596
     31 H8         -4.9261   -3.1808    2.7884 H         1 <0>         0.1218
     32 H9         -2.8699   -1.8325    2.6572 H         1 <0>         0.1183
     33 H10        -4.3442    0.0737   -0.8616 H         1 <0>         0.1228
     34 H11        -6.3968   -1.2806   -0.7352 H         1 <0>         0.1220
     35 H12        -2.4457    0.9929    0.3354 H         1 <0>         0.0933
     36 H13        -1.8266    0.1931    1.8199 H         1 <0>         0.0553
     37 H14        -0.8250   -2.0766    1.5401 H         1 <0>         0.0540
     38 H15        -1.9990   -2.6235    0.2954 H         1 <0>         0.1011
     39 H16        -0.9742    1.9134   -0.0018 H         1 <0>         0.1239
     40 H17         3.2976    2.0043   -0.0604 H         1 <0>         0.1235
     41 H18         3.3500   -0.4548   -0.0579 H         1 <0>         0.1289
     42 H19         2.0668    4.0824   -0.0431 H         1 <0>         0.4160
     43 H20         0.1622    4.0407   -0.0151 H         1 <0>         0.4136
     44 H21         1.0370   -4.6583   -0.4820 H         1 <0>         0.0724
     45 H22        -0.7225   -4.7247   -0.1262 H         1 <0>         0.0784
     46 H23         0.4374   -4.2556    1.1627 H         1 <0>         0.0662
     47 H24         0.6137   -3.1024   -2.3839 H         1 <0>         0.0626
     48 H25        -0.2918   -1.5747   -2.1141 H         1 <0>         0.0703
     49 H26        -1.1505   -3.1511   -2.0496 H         1 <0>         0.0687
@<TRIPOS>BOND
     1    1    2 1
     2    1   24 1
     3    1   25 1
     4    1   26 1
     5    2    3 1
     6    2    4 1
     7    2   27 1
     8    3   28 1
     9    3   29 1
    10    3   30 1
    11    4    9 ar
    12    4    5 ar
    13    5    6 ar
    14    5   31 1
    15    6    7 ar
    16    6   32 1
    17    7    8 ar
    18    7   10 1
    19    8    9 ar
    20    8   33 1
    21    9   34 1
    22   10   11 1
    23   10   35 1
    24   10   36 1
    25   11   16 1
    26   11   12 1
    27   12   13 1
    28   12   37 1
    29   12   38 1
    30   13   14 1
    31   13   22 1
    32   13   23 1
    33   14   15 1
    34   15   20 ar
    35   15   16 ar
    36   16   17 ar
    37   17   18 ar
    38   17   39 1
    39   18   19 ar
    40   18   21 1
    41   19   20 ar
    42   19   40 1
    43   20   41 1
    44   21   42 1
    45   21   43 1
    46   22   44 1
    47   22   45 1
    48   22   46 1
    49   23   47 1
    50   23   48 1
    51   23   49 1
@<TRIPOS>MOLECULE
ZINC36970242
   33    35     0     0     0
SMALL
USER_CHARGES

@<TRIPOS>ATOM
      1 C1          0.0778    1.5351    0.0417 C.3       1 <0>        -0.1093
      2 C2          0.0741    0.0283    0.0199 C.ar      1 <0>         0.1634
      3 C3          0.0803   -0.6324   -1.2068 C.ar      1 <0>        -0.1667
      4 C4          0.0771   -1.9976   -1.2453 C.ar      1 <0>        -0.0535
      5 C5          0.0675   -2.6965   -0.0233 C.ar      1 <0>        -0.1016
      6 C6          0.0642   -4.1005    0.0159 C.ar      1 <0>        -0.0884
      7 C7          0.0553   -4.7427    1.2167 C.ar      1 <0>        -0.1087
      8 C8          0.0489   -4.0274    2.4111 C.ar      1 <0>        -0.1022
      9 C9          0.0514   -2.6612    2.4130 C.ar      1 <0>         0.1070
     10 C10         0.0616   -1.9619    1.1875 C.ar      1 <0>         0.1200
     11 N1          0.0705   -0.6264    1.1556 N.ar      1 <0>        -0.4626
     12 O1          0.0441   -1.9801    3.5879 O.3       1 <0>        -0.2462
     13 C11        -1.1437   -1.4925    4.0358 C.ar      1 <0>         0.0767
     14 C12        -2.3162   -1.7935    3.3620 C.ar      1 <0>        -0.1396
     15 C13        -3.5232   -1.2968    3.8181 C.ar      1 <0>        -0.1118
     16 C14        -3.5646   -0.4985    4.9472 C.ar      1 <0>        -0.0705
     17 C15        -2.3987   -0.1938    5.6257 C.ar      1 <0>        -0.1446
     18 C16        -1.1849   -0.6936    5.1768 C.ar      1 <0>         0.2108
     19 N2         -0.0043   -0.3912    5.8645 N.pl3     1 <0>        -0.8683
     20 Br1        -5.2192    0.1781    5.5640 Br        1 <0>        -0.0507
     21 H1          1.1064    1.8958    0.0487 H         1 <0>         0.0827
     22 H2         -0.4335    1.9125   -0.8439 H         1 <0>         0.0791
     23 H3         -0.4367    1.8868    0.9359 H         1 <0>         0.0800
     24 H4          0.0872   -0.0657   -2.1261 H         1 <0>         0.1409
     25 H5          0.0814   -2.5264   -2.1870 H         1 <0>         0.1441
     26 H6          0.0684   -4.6685   -0.9027 H         1 <0>         0.1368
     27 H7          0.0528   -5.8224    1.2429 H         1 <0>         0.1379
     28 H8          0.0415   -4.5605    3.3503 H         1 <0>         0.1403
     29 H9         -2.2873   -2.4161    2.4801 H         1 <0>         0.1286
     30 H10        -4.4361   -1.5323    3.2912 H         1 <0>         0.1313
     31 H11        -2.4335    0.4299    6.5067 H         1 <0>         0.1384
     32 H12         0.8442   -0.7377    5.5470 H         1 <0>         0.4059
     33 H13        -0.0345    0.1651    6.6586 H         1 <0>         0.4008
@<TRIPOS>BOND
     1    1    2 1
     2    1   21 1
     3    1   22 1
     4    1   23 1
     5    2   11 ar
     6    2    3 ar
     7    3    4 ar
     8    3   24 1
     9    4    5 ar
    10    4   25 1
    11    5   10 ar
    12    5    6 ar
    13    6    7 ar
    14    6   26 1
    15    7    8 ar
    16    7   27 1
    17    8    9 ar
    18    8   28 1
    19    9   10 ar
    20    9   12 1
    21   10   11 ar
    22   12   13 1
    23   13   18 ar
    24   13   14 ar
    25   14   15 ar
    26   14   29 1
    27   15   16 ar
    28   15   30 1
    29   16   17 ar
    30   16   20 1
    31   17   18 ar
    32   17   31 1
    33   18   19 1
    34   19   32 1
    35   19   33 1
@<TRIPOS>MOLECULE
ZINC43666597
   39    40     0     0     0
SMALL
USER_CHARGES

@<TRIPOS>ATOM
      1 C1         -0.0859    1.4653    0.1434 C.3       1 <0>        -0.1561
      2 C2         -0.0337   -0.0637    0.1328 C.3       1 <0>        -0.0885
      3 H1         -1.0458   -0.4623    0.2038 H         1 <0>         0.0782
      4 C3          0.6130   -0.5430   -1.1684 C.3       1 <0>        -0.1191
      5 C4          2.0335    0.0165   -1.2681 C.3       1 <0>        -0.1185
      6 C5          2.8595   -0.4739   -0.0772 C.3       1 <0>        -0.0850
      7 H2          2.8967   -1.5632   -0.0847 H         1 <0>         0.0876
      8 C6          2.2128    0.0054    1.2239 C.3       1 <0>         0.1725
      9 H3          2.1757    1.0947    1.2314 H         1 <0>         0.0956
     10 C7          0.7923   -0.5541    1.3237 C.3       1 <0>        -0.1231
     11 N1          3.0038   -0.4641    2.3642 N.pl3     1 <0>        -0.3829
     12 C8          3.5187    0.3105    3.3537 C.2       1 <0>         0.4055
     13 C9          4.1822   -0.5117    4.2132 C.2       1 <0>        -0.3208
     14 C10         4.0659   -1.8186    3.7314 C.2       1 <0>         0.1053
     15 N2          3.3584   -1.7927    2.6312 N.2       1 <0>        -0.2884
     16 I1          5.1972    0.0777    5.9485 I         1 <0>        -0.0214
     17 N3          3.3916    1.6924    3.4686 N.pl3     1 <0>        -0.8502
     18 C11         4.2801    0.0856   -0.1770 C.3       1 <0>        -0.0915
     19 C12         4.9748   -0.5028   -1.4066 C.3       1 <0>        -0.1458
     20 C13         4.2204    1.6090   -0.3051 C.3       1 <0>        -0.1512
     21 H4          0.9261    1.8639    0.0723 H         1 <0>         0.0565
     22 H5         -0.6744    1.8147   -0.7050 H         1 <0>         0.0602
     23 H6         -0.5466    1.8068    1.0703 H         1 <0>         0.0552
     24 H7          0.6501   -1.6323   -1.1759 H         1 <0>         0.0660
     25 H8          0.0245   -0.1937   -2.0167 H         1 <0>         0.0676
     26 H9          2.4942   -0.3250   -2.1950 H         1 <0>         0.0731
     27 H10         1.9963    1.1058   -1.2606 H         1 <0>         0.0714
     28 H11         0.3316   -0.2127    2.2506 H         1 <0>         0.0660
     29 H12         0.8295   -1.6434    1.3161 H         1 <0>         0.0796
     30 H13         4.4857   -2.7010    4.1915 H         1 <0>         0.1838
     31 H14         2.8961    2.1911    2.8003 H         1 <0>         0.4009
     32 H15         3.7987    2.1563    4.2169 H         1 <0>         0.4181
     33 H16         4.8397   -0.1820    0.7193 H         1 <0>         0.0694
     34 H17         6.0148   -0.1772   -1.4270 H         1 <0>         0.0539
     35 H18         4.9356   -1.5911   -1.3601 H         1 <0>         0.0557
     36 H19         4.4688   -0.1593   -2.3089 H         1 <0>         0.0571
     37 H20         3.7255    2.0282    0.5710 H         1 <0>         0.0453
     38 H21         5.2324    2.0076   -0.3761 H         1 <0>         0.0562
     39 H22         3.6607    1.8766   -1.2013 H         1 <0>         0.0619
@<TRIPOS>BOND
     1    1    2 1
     2    1   21 1
     3    1   22 1
     4    1   23 1
     5    2    3 1
     6    2   10 1
     7    2    4 1
     8    4    5 1
     9    4   24 1
    10    4   25 1
    11    5    6 1
    12    5   26 1
    13    5   27 1
    14    6    7 1
    15    6    8 1
    16    6   18 1
    17    8    9 1
    18    8   10 1
    19    8   11 1
    20   10   28 1
    21   10   29 1
    22   11   15 1
    23   11   12 1
    24   12   13 2
    25   12   17 1
    26   13   14 1
    27   13   16 1
    28   14   15 2
    29   14   30 1
    30   17   31 1
    31   17   32 1
    32   18   19 1
    33   18   20 1
    34   18   33 1
    35   19   34 1
    36   19   35 1
    37   19   36 1
    38   20   37 1
    39   20   38 1
    40   20   39 1
@<TRIPOS>MOLECULE
ZINC21045928
   29    31     0     0     0
SMALL
USER_CHARGES

@<TRIPOS>ATOM
      1 C1         -0.0167    1.3792    0.0096 C.ar      1 <0>        -0.0389
      2 C2          1.1642    2.0928    0.0022 C.ar      1 <0>        -0.1344
      3 C3          2.3860    1.4235   -0.0135 C.ar      1 <0>         0.1768
      4 C4          2.3920    0.0341   -0.0210 C.ar      1 <0>        -0.1635
      5 C5          1.2132   -0.6761   -0.0124 C.ar      1 <0>        -0.0152
      6 C6          0.0021   -0.0041    0.0020 C.ar      1 <0>        -0.1189
      7 Br1        -1.6209   -0.9745    0.0119 Br        1 <0>        -0.0329
      8 C7          3.8441   -0.3847   -0.0376 C.3       1 <0>         0.1708
      9 H1          4.0665   -0.9560   -0.9388 H         1 <0>         0.1382
     10 C8          4.6049    0.9242   -0.0381 C.2       1 <0>         0.5146
     11 O1          5.8104    1.0567   -0.0494 O.2       1 <0>        -0.4705
     12 N1          3.6936    1.9115   -0.0239 N.am      1 <0>        -0.6584
     13 N2          4.1660   -1.1682    1.1577 N.pl3     1 <0>        -0.7136
     14 C9          5.2297   -2.0779    1.1328 C.ar      1 <0>         0.2036
     15 C10         5.9836   -2.2343   -0.0223 C.ar      1 <0>        -0.1417
     16 C11         7.0331   -3.1329   -0.0463 C.ar      1 <0>        -0.0800
     17 C12         7.3347   -3.8784    1.0803 C.ar      1 <0>         0.0442
     18 C13         6.5848   -3.7253    2.2364 C.ar      1 <0>         0.0827
     19 C14         5.5360   -2.8218    2.2664 C.ar      1 <0>         0.0227
     20 F1          4.8079   -2.6675    3.3939 F         1 <0>        -0.1218
     21 F2          6.8803   -4.4541    3.3349 F         1 <0>        -0.1136
     22 F3          8.3609   -4.7567    1.0532 F         1 <0>        -0.1228
     23 H2         -0.9608    1.9033    0.0260 H         1 <0>         0.1463
     24 H3          1.1413    3.1725    0.0082 H         1 <0>         0.1420
     25 H4          1.2324   -1.7559   -0.0187 H         1 <0>         0.1433
     26 H5          3.9186    2.8551   -0.0216 H         1 <0>         0.4197
     27 H6          3.6422   -1.0565    1.9664 H         1 <0>         0.4159
     28 H7          5.7497   -1.6538   -0.9024 H         1 <0>         0.1485
     29 H8          7.6188   -3.2540   -0.9456 H         1 <0>         0.1568
@<TRIPOS>BOND
     1    1    6 ar
     2    1    2 ar
     3    1   23 1
     4    2    3 ar
     5    2   24 1
     6    3   12 1
     7    3    4 ar
     8    4    5 ar
     9    4    8 1
    10    5    6 ar
    11    5   25 1
    12    6    7 1
    13    8    9 1
    14    8   10 1
    15    8   13 1
    16   10   11 2
    17   10   12 am
    18   12   26 1
    19   13   14 1
    20   13   27 1
    21   14   19 ar
    22   14   15 ar
    23   15   16 ar
    24   15   28 1
    25   16   17 ar
    26   16   29 1
    27   17   18 ar
    28   17   22 1
    29   18   19 ar
    30   18   21 1
    31   19   20 1
@<TRIPOS>MOLECULE
ZINC05033447
   54    59     0     0     0
SMALL
USER_CHARGES
5-(1-adamantyl)-N-(1H-indol-3-ylmethyleneamino)-2H-pyrazole-3-carboxamide
@<TRIPOS>ATOM
      1 C1         -3.0448    3.7738    0.0514 C.ar      1 <0>        -0.1425
      2 C2         -3.4435    2.4443    0.0476 C.ar      1 <0>        -0.0958
      3 C3         -2.5100    1.4316    0.0328 C.ar      1 <0>        -0.1315
      4 C4         -1.1529    1.7385    0.0164 C.ar      1 <0>         0.0867
      5 C5         -0.7508    3.0843    0.0258 C.ar      1 <0>        -0.0789
      6 C6         -1.7066    4.0983    0.0404 C.ar      1 <0>        -0.0611
      7 C7          0.7227    3.0683    0.0116 C.2       1 <0>        -0.1535
      8 C8          1.0965    1.7602    0.0010 C.2       1 <0>         0.1049
      9 N1         -0.0111    0.9658    0.0074 N.pl3     1 <0>        -0.5834
     10 H1          0.0021   -0.0041    0.0020 H         1 <0>         0.4212
     11 C9          1.6152    4.2384    0.0098 C.2       1 <0>         0.1560
     12 N2          1.1147    5.4373    0.0215 N.2       1 <0>        -0.2354
     13 N3          1.9644    6.5512    0.0198 N.am      1 <0>        -0.5851
     14 C10         1.4451    7.7949    0.0319 C.2       1 <0>         0.6113
     15 O1          0.2382    7.9503    0.0443 O.2       1 <0>        -0.4815
     16 C11         2.3373    8.9646    0.0301 C.2       1 <0>        -0.0397
     17 C12         1.9610   10.2968    0.0413 C.2       1 <0>        -0.1355
     18 C13         3.1566   11.0189    0.0340 C.2       1 <0>         0.0434
     19 N4          4.1441   10.1603    0.0197 N.2       1 <0>        -0.2556
     20 N5          3.7033    8.9539    0.0229 N.pl3     1 <0>        -0.3846
     21 H2          4.2731    8.1321    0.0205 H         1 <0>         0.4487
     22 C14         3.2863   12.5203    0.0407 C.3       1 <0>         0.0337
     23 C15         2.3235   13.1109    1.0727 C.3       1 <0>        -0.0998
     24 C16         2.4552   14.6352    1.0794 C.3       1 <0>        -0.0849
     25 C17         3.8907   15.0214    1.4415 C.3       1 <0>        -0.1098
     26 C18         4.8535   14.4309    0.4095 C.3       1 <0>        -0.0873
     27 C19         4.7218   12.9065    0.4028 C.3       1 <0>        -0.0943
     28 C20         4.5126   14.9783   -0.9779 C.3       1 <0>        -0.1094
     29 C21         3.0772   14.5921   -1.3401 C.3       1 <0>        -0.0850
     30 C22         2.1143   15.1826   -0.3080 C.3       1 <0>        -0.1099
     31 C23         2.9454   13.0678   -1.3468 C.3       1 <0>        -0.0980
     32 H3         -3.7878    4.5575    0.0627 H         1 <0>         0.1250
     33 H4         -4.4958    2.2016    0.0559 H         1 <0>         0.1266
     34 H5         -2.8311    0.4005    0.0296 H         1 <0>         0.1208
     35 H6         -1.3993    5.1337    0.0426 H         1 <0>         0.1367
     36 H7          2.1164    1.4050   -0.0109 H         1 <0>         0.1808
     37 H8          2.6863    4.1005   -0.0012 H         1 <0>         0.1203
     38 H9          2.9264    6.4274    0.0099 H         1 <0>         0.3761
     39 H10         0.9565   10.6934    0.0535 H         1 <0>         0.1659
     40 H11         1.3008   12.8357    0.8147 H         1 <0>         0.0679
     41 H12         2.5664   12.7208    2.0611 H         1 <0>         0.0647
     42 H13         1.7693   15.0559    1.8146 H         1 <0>         0.0728
     43 H14         4.1336   14.6314    2.4299 H         1 <0>         0.0617
     44 H15         3.9845   16.1074    1.4463 H         1 <0>         0.0625
     45 H16         5.8762   14.7060    0.6675 H         1 <0>         0.0708
     46 H17         4.9647   12.5165    1.3912 H         1 <0>         0.0631
     47 H18         5.4078   12.4858   -0.3325 H         1 <0>         0.0680
     48 H19         4.6065   16.0643   -0.9731 H         1 <0>         0.0625
     49 H20         5.1986   14.5576   -1.7132 H         1 <0>         0.0617
     50 H21         2.8343   14.9821   -2.3285 H         1 <0>         0.0721
     51 H22         1.0917   14.9075   -0.5660 H         1 <0>         0.0636
     52 H23         2.2082   16.2686   -0.3032 H         1 <0>         0.0630
     53 H24         3.6314   12.6470   -2.0820 H         1 <0>         0.0635
     54 H25         1.9228   12.7926   -1.6048 H         1 <0>         0.0664
@<TRIPOS>BOND
     1    1    6 ar
     2    1    2 ar
     3    1   32 1
     4    2    3 ar
     5    2   33 1
     6    3    4 ar
     7    3   34 1
     8    4    9 1
     9    4    5 ar
    10    5    6 ar
    11    5    7 1
    12    6   35 1
    13    7    8 2
    14    7   11 1
    15    8    9 1
    16    8   36 1
    17    9   10 1
    18   11   12 2
    19   11   37 1
    20   12   13 1
    21   13   14 am
    22   13   38 1
    23   14   15 2
    24   14   16 1
    25   16   20 1
    26   16   17 2
    27   17   18 1
    28   17   39 1
    29   18   19 2
    30   18   22 1
    31   19   20 1
    32   20   21 1
    33   22   27 1
    34   22   31 1
    35   22   23 1
    36   23   24 1
    37   23   40 1
    38   23   41 1
    39   24   30 1
    40   24   25 1
    41   24   42 1
    42   25   26 1
    43   25   43 1
    44   25   44 1
    45   26   27 1
    46   26   28 1
    47   26   45 1
    48   27   46 1
    49   27   47 1
    50   28   29 1
    51   28   48 1
    52   28   49 1
    53   29   30 1
    54   29   31 1
    55   29   50 1
    56   30   51 1
    57   30   52 1
    58   31   53 1
    59   31   54 1
@<TRIPOS>MOLECULE
ZINC14544902
   60    65     0     0     0
SMALL
USER_CHARGES
(3aS,4R,9bS)-4-(1H-indol-3-yl)-N-[(1R)-1-phenylethyl]-3a,4,5,9b-tetrahydro-3H-cyclopenta[c]quinoline-6-carboxamide
@<TRIPOS>ATOM
      1 C1          1.6288   -3.6387   -4.5923 C.3       1 <0>        -0.1579
      2 C2          2.9039   -3.8475   -3.7728 C.3       1 <0>         0.1866
      3 H1          3.6514   -3.1120   -4.0702 H         1 <0>         0.0976
      4 C3          3.4382   -5.2348   -4.0198 C.ar      1 <0>        -0.0924
      5 C4          2.8848   -6.3161   -3.3600 C.ar      1 <0>        -0.1162
      6 C5          3.3720   -7.5892   -3.5898 C.ar      1 <0>        -0.1153
      7 C6          4.4186   -7.7798   -4.4725 C.ar      1 <0>        -0.1188
      8 C7          4.9755   -6.6978   -5.1283 C.ar      1 <0>        -0.1146
      9 C8          4.4854   -5.4253   -4.9018 C.ar      1 <0>        -0.1076
     10 N1          2.6008   -3.6873   -2.3485 N.am      1 <0>        -0.7261
     11 C9          2.5998   -2.4590   -1.7938 C.2       1 <0>         0.5628
     12 O1          2.8506   -1.4837   -2.4755 O.2       1 <0>        -0.5218
     13 C10         2.2948   -2.2977   -0.3604 C.ar      1 <0>        -0.1839
     14 C11         2.0084   -3.4185    0.4167 C.ar      1 <0>        -0.0619
     15 C12         1.7234   -3.2753    1.7568 C.ar      1 <0>        -0.1598
     16 C13         1.7151   -2.0137    2.3289 C.ar      1 <0>        -0.0576
     17 C14         1.9888   -0.8940    1.5746 C.ar      1 <0>        -0.1256
     18 C15         2.2951   -1.0103    0.2153 C.ar      1 <0>         0.2023
     19 N2          2.6026    0.0596   -0.6081 N.pl3     1 <0>        -0.6157
     20 C16         2.5117    1.4033   -0.0151 C.3       1 <0>         0.1793
     21 H2          3.1182    2.1043   -0.5886 H         1 <0>         0.0994
     22 C17         3.0378    1.3017    1.4016 C.3       1 <0>        -0.1201
     23 H3          4.0187    0.8271    1.4293 H         1 <0>         0.0899
     24 C18         1.9615    0.4641    2.1604 C.3       1 <0>        -0.0436
     25 H4          0.9879    0.9065    1.9493 H         1 <0>         0.1034
     26 C19         2.2929    0.7324    3.5808 C.2       1 <0>        -0.1534
     27 C20         2.8449    1.9382    3.6646 C.2       1 <0>        -0.1639
     28 C21         2.9572    2.5587    2.2696 C.3       1 <0>        -0.0881
     29 C22         1.0760    1.8612    0.0018 C.2       1 <0>        -0.1593
     30 C23        -0.0126    1.0758    0.0080 C.2       1 <0>         0.0763
     31 N3         -1.1436    1.8460    0.0170 N.pl3     1 <0>        -0.5953
     32 H5         -2.0510    1.5033    0.0189 H         1 <0>         0.4158
     33 C24        -0.8016    3.1797    0.0268 C.ar      1 <0>         0.0959
     34 C25         0.6037    3.2479    0.0138 C.ar      1 <0>        -0.0939
     35 C26         1.2408    4.4899    0.0139 C.ar      1 <0>        -0.0729
     36 C27         0.4949    5.6350    0.0268 C.ar      1 <0>        -0.1443
     37 C28        -0.8915    5.5731    0.0397 C.ar      1 <0>        -0.0993
     38 C29        -1.5408    4.3578    0.0398 C.ar      1 <0>        -0.1291
     39 H6          1.2423   -2.6353   -4.4136 H         1 <0>         0.0669
     40 H7          1.8543   -3.7579   -5.6520 H         1 <0>         0.0674
     41 H8          0.8813   -4.3742   -4.2949 H         1 <0>         0.0575
     42 H9          2.0695   -6.1668   -2.6676 H         1 <0>         0.1187
     43 H10         2.9367   -8.4346   -3.0777 H         1 <0>         0.1240
     44 H11         4.8010   -8.7741   -4.6500 H         1 <0>         0.1234
     45 H12         5.7932   -6.8468   -5.8179 H         1 <0>         0.1249
     46 H13         4.9205   -4.5799   -5.4141 H         1 <0>         0.1250
     47 H14         2.4007   -4.4652   -1.8047 H         1 <0>         0.3968
     48 H15         2.0095   -4.4007   -0.0325 H         1 <0>         0.1214
     49 H16         1.5067   -4.1446    2.3599 H         1 <0>         0.1272
     50 H17         1.4915   -1.9067    3.3801 H         1 <0>         0.1246
     51 H18         3.4944   -0.0766   -1.0601 H         1 <0>         0.3836
     52 H19         2.1160    0.0606    4.4078 H         1 <0>         0.1272
     53 H20         3.1669    2.4104    4.5810 H         1 <0>         0.1273
     54 H21         2.0779    3.1592    2.0367 H         1 <0>         0.0928
     55 H22         3.8680    3.1503    2.1769 H         1 <0>         0.0703
     56 H23         0.0021   -0.0041    0.0020 H         1 <0>         0.1643
     57 H24         2.3193    4.5458    0.0043 H         1 <0>         0.1207
     58 H25         0.9883    6.5957    0.0273 H         1 <0>         0.1221
     59 H26        -1.4673    6.4868    0.0494 H         1 <0>         0.1243
     60 H27        -2.6201    4.3201    0.0502 H         1 <0>         0.1187
@<TRIPOS>BOND
     1    1    2 1
     2    1   39 1
     3    1   40 1
     4    1   41 1
     5    2    3 1
     6    2    4 1
     7    2   10 1
     8    4    9 ar
     9    4    5 ar
    10    5    6 ar
    11    5   42 1
    12    6    7 ar
    13    6   43 1
    14    7    8 ar
    15    7   44 1
    16    8    9 ar
    17    8   45 1
    18    9   46 1
    19   10   11 am
    20   10   47 1
    21   11   12 2
    22   11   13 1
    23   13   18 ar
    24   13   14 ar
    25   14   15 ar
    26   14   48 1
    27   15   16 ar
    28   15   49 1
    29   16   17 ar
    30   16   50 1
    31   17   24 1
    32   17   18 ar
    33   18   19 1
    34   19   20 1
    35   19   51 1
    36   20   21 1
    37   20   22 1
    38   20   29 1
    39   22   23 1
    40   22   28 1
    41   22   24 1
    42   24   25 1
    43   24   26 1
    44   26   27 2
    45   26   52 1
    46   27   28 1
    47   27   53 1
    48   28   54 1
    49   28   55 1
    50   29   34 1
    51   29   30 2
    52   30   31 1
    53   30   56 1
    54   31   32 1
    55   31   33 1
    56   33   38 ar
    57   33   34 ar
    58   34   35 ar
    59   35   36 ar
    60   35   57 1
    61   36   37 ar
    62   36   58 1
    63   37   38 ar
    64   37   59 1
    65   38   60 1
@<TRIPOS>MOLECULE
ZINC21225253
   59    63     0     0     0
SMALL
USER_CHARGES
(6S,9R)-9-(4-dimethylaminophenyl)-6-(2-hydroxyphenyl)-5,6,8,9,10,11-hexahydrobenzo[c][1,5]benzodiazepin-7-one
@<TRIPOS>ATOM
      1 C1         -8.1165    5.4038    1.6623 C.3       1 <0>         0.0854
      2 N1         -7.5320    4.8374    0.4442 N.pl3     1 <0>        -0.6382
      3 C2         -8.1844    5.0524   -0.8498 C.3       1 <0>         0.0855
      4 C3         -6.3527    4.0925    0.5165 C.ar      1 <0>         0.2162
      5 C4         -5.7970    3.7870    1.7524 C.ar      1 <0>        -0.1988
      6 C5         -4.6312    3.0498    1.8204 C.ar      1 <0>        -0.0609
      7 C6         -4.0170    2.6160    0.6598 C.ar      1 <0>        -0.1407
      8 C7         -4.5644    2.9232   -0.5723 C.ar      1 <0>        -0.0622
      9 C8         -5.7332    3.6551   -0.6473 C.ar      1 <0>        -0.1985
     10 C9         -2.7448    1.8118    0.7379 C.3       1 <0>        -0.0261
     11 H1         -2.4816    1.7079    1.8009 H         1 <0>         0.0832
     12 C10        -1.6321    2.5252   -0.0282 C.3       1 <0>        -0.1035
     13 C11        -0.3529    1.7080    0.0366 C.2       1 <0>         0.2676
     14 C12        -0.4035    0.3653    0.0836 C.2       1 <0>        -0.3074
     15 C13         0.7845   -0.5642    0.1413 C.3       1 <0>         0.2984
     16 H2          0.6783   -1.2933   -0.6755 H         1 <0>         0.0903
     17 N2          2.0588    0.0707   -0.1197 N.pl3     1 <0>        -0.7747
     18 C14         2.5670    1.0407    0.7428 C.ar      1 <0>         0.1772
     19 C15         3.7308    0.8307    1.4648 C.ar      1 <0>        -0.1286
     20 C16         4.1706    1.8048    2.3442 C.ar      1 <0>        -0.1104
     21 C17         3.4548    2.9772    2.5056 C.ar      1 <0>        -0.1265
     22 C18         2.3013    3.1978    1.7721 C.ar      1 <0>        -0.1159
     23 C19         1.8730    2.2340    0.8761 C.ar      1 <0>         0.1175
     24 N3          0.7913    2.4378    0.0270 N.pl3     1 <0>        -0.6975
     25 C20         0.8349   -1.1900    1.5114 C.ar      1 <0>        -0.1107
     26 C21         0.1282   -0.6253    2.5557 C.ar      1 <0>        -0.0642
     27 C22         0.1732   -1.1994    3.8126 C.ar      1 <0>        -0.1660
     28 C23         0.9256   -2.3395    4.0280 C.ar      1 <0>        -0.0809
     29 C24         1.6338   -2.9078    2.9872 C.ar      1 <0>        -0.2199
     30 C25         1.5861   -2.3366    1.7236 C.ar      1 <0>         0.1744
     31 O1          2.2775   -2.8971    0.6967 O.3       1 <0>        -0.5028
     32 C26        -1.6523   -0.2996    0.0954 C.2       1 <0>         0.3977
     33 O2         -1.6688   -1.5148    0.1143 O.2       1 <0>        -0.4712
     34 C27        -2.9560    0.4406    0.0850 C.3       1 <0>        -0.1599
     35 H3         -7.4906    5.1383    2.5270 H         1 <0>         0.0795
     36 H4         -9.1296    4.9997    1.8050 H         1 <0>         0.0549
     37 H5         -8.1682    6.4986    1.5694 H         1 <0>         0.0551
     38 H6         -7.6032    4.5553   -1.6405 H         1 <0>         0.0795
     39 H7         -8.2392    6.1311   -1.0581 H         1 <0>         0.0548
     40 H8         -9.2006    4.6322   -0.8224 H         1 <0>         0.0552
     41 H9         -6.2760    4.1258    2.6592 H         1 <0>         0.1238
     42 H10        -4.1988    2.8116    2.7809 H         1 <0>         0.1205
     43 H11        -4.0796    2.5869   -1.4769 H         1 <0>         0.1203
     44 H12        -6.1626    3.8909   -1.6098 H         1 <0>         0.1237
     45 H13        -1.9312    2.6478   -1.0796 H         1 <0>         0.0911
     46 H14        -1.4539    3.5138    0.4200 H         1 <0>         0.0892
     47 H15         2.6413   -0.2104   -1.0094 H         1 <0>         0.4138
     48 H16         4.2902   -0.0850    1.3421 H         1 <0>         0.1206
     49 H17         5.0782    1.6483    2.9083 H         1 <0>         0.1201
     50 H18         3.7973    3.7240    3.2065 H         1 <0>         0.1225
     51 H19         1.7415    4.1127    1.8979 H         1 <0>         0.1233
     52 H20         0.9120    3.2620   -0.6915 H         1 <0>         0.4249
     53 H21        -0.4601    0.2651    2.3900 H         1 <0>         0.1163
     54 H22        -0.3805   -0.7569    4.6275 H         1 <0>         0.1178
     55 H23         0.9591   -2.7861    5.0107 H         1 <0>         0.1197
     56 H24         2.2210   -3.7984    3.1559 H         1 <0>         0.1223
     57 H25         2.8729   -3.8064    0.8661 H         1 <0>         0.4266
     58 H26        -3.7114   -0.1231    0.6522 H         1 <0>         0.0961
     59 H27        -3.3012    0.5768   -0.9505 H         1 <0>         0.1006
@<TRIPOS>BOND
     1    1    2 1
     2    1   35 1
     3    1   36 1
     4    1   37 1
     5    2    3 1
     6    2    4 1
     7    3   38 1
     8    3   39 1
     9    3   40 1
    10    4    9 ar
    11    4    5 ar
    12    5    6 ar
    13    5   41 1
    14    6    7 ar
    15    6   42 1
    16    7    8 ar
    17    7   10 1
    18    8    9 ar
    19    8   43 1
    20    9   44 1
    21   10   11 1
    22   10   34 1
    23   10   12 1
    24   12   13 1
    25   12   45 1
    26   12   46 1
    27   13   24 1
    28   13   14 2
    29   14   15 1
    30   14   32 1
    31   15   16 1
    32   15   17 1
    33   15   25 1
    34   17   18 1
    35   17   47 1
    36   18   23 ar
    37   18   19 ar
    38   19   20 ar
    39   19   48 1
    40   20   21 ar
    41   20   49 1
    42   21   22 ar
    43   21   50 1
    44   22   23 ar
    45   22   51 1
    46   23   24 1
    47   24   52 1
    48   25   30 ar
    49   25   26 ar
    50   26   27 ar
    51   26   53 1
    52   27   28 ar
    53   27   54 1
    54   28   29 ar
    55   28   55 1
    56   29   30 ar
    57   29   56 1
    58   30   31 1
    59   31   57 1
    60   32   33 2
    61   32   34 1
    62   34   58 1
    63   34   59 1
@<TRIPOS>MOLECULE
ZINC00694529
   55    59     0     0     0
SMALL
USER_CHARGES

@<TRIPOS>ATOM
      1 C1         -0.0187    1.5258    0.0104 C.3       1 <0>        -0.1561
      2 C2          0.0021   -0.0041    0.0020 C.3       1 <0>        -0.1191
      3 C3         -1.4333   -0.5336    0.0129 C.3       1 <0>        -0.0815
      4 H1         -1.9877   -0.1028   -0.8209 H         1 <0>         0.0760
      5 C4         -1.4180   -2.0596   -0.1153 C.3       1 <0>        -0.1141
      6 C5         -2.8387   -2.5766   -0.3526 C.3       1 <0>        -0.0593
      7 C6         -3.7515   -2.0050    0.7222 C.2       1 <0>        -0.0616
      8 C7         -3.3890   -0.9268    1.4503 C.2       1 <0>        -0.2231
      9 S1         -4.7488   -0.6478    2.5466 S.3       1 <0>         0.2863
     10 C8         -5.7623   -1.8992    2.0702 C.2       1 <0>         0.0388
     11 C9         -5.0580   -2.5401    1.0631 C.2       1 <0>        -0.2368
     12 C10        -5.6091   -3.7091    0.3706 C.2       1 <0>         0.5861
     13 O1         -5.3918   -4.8279    0.7977 O.2       1 <0>        -0.5348
     14 N1         -6.3561   -3.5448   -0.7391 N.am      1 <0>        -0.8475
     15 N2         -7.0156   -2.2184    2.5702 N.am      1 <0>        -0.6177
     16 C11        -7.5541   -1.4799    3.5607 C.2       1 <0>         0.5165
     17 O2         -6.9425   -0.5362    4.0147 O.2       1 <0>        -0.4786
     18 C12        -8.9163   -1.8269    4.1040 C.3       1 <0>        -0.0046
     19 C13        -9.9253   -1.7711    2.9893 C.ar      1 <0>        -0.1579
     20 C14       -10.0015   -2.8195    2.0897 C.ar      1 <0>        -0.0862
     21 C15       -10.9220   -2.7867    1.0597 C.ar      1 <0>        -0.1343
     22 C16       -11.7711   -1.7038    0.9245 C.ar      1 <0>        -0.0761
     23 C17       -11.6996   -0.6550    1.8190 C.ar      1 <0>        -0.1306
     24 C18       -10.7749   -0.6849    2.8566 C.ar      1 <0>         0.1345
     25 O3        -10.7205    0.3532    3.7252 O.3       1 <0>        -0.2407
     26 C19       -10.1626    0.1854    4.9482 C.ar      1 <0>         0.1277
     27 C20        -9.2799   -0.8542    5.1928 C.ar      1 <0>        -0.1352
     28 C21        -8.7234   -1.0043    6.4506 C.ar      1 <0>        -0.0635
     29 C22        -9.0454   -0.1213    7.4635 C.ar      1 <0>        -0.1370
     30 C23        -9.9264    0.9168    7.2227 C.ar      1 <0>        -0.0776
     31 C24       -10.4843    1.0723    5.9692 C.ar      1 <0>        -0.1336
     32 C25        -2.1131   -0.1501    1.3356 C.3       1 <0>        -0.0290
     33 H2          1.0039    1.9031    0.0027 H         1 <0>         0.0544
     34 H3         -0.5459    1.8868   -0.8726 H         1 <0>         0.0541
     35 H4         -0.5289    1.8773    0.9072 H         1 <0>         0.0564
     36 H5          0.5123   -0.3556   -0.8948 H         1 <0>         0.0651
     37 H6          0.5293   -0.3651    0.8851 H         1 <0>         0.0644
     38 H7         -0.7836   -2.3461   -0.9540 H         1 <0>         0.0708
     39 H8         -1.0224   -2.4960    0.8019 H         1 <0>         0.0675
     40 H9         -3.1851   -2.2558   -1.3351 H         1 <0>         0.0766
     41 H10        -2.8457   -3.6651   -0.2973 H         1 <0>         0.0755
     42 H11        -6.5293   -2.6531   -1.0795 H         1 <0>         0.4035
     43 H12        -6.7207   -4.3181   -1.1972 H         1 <0>         0.4027
     44 H13        -7.5048   -2.9732    2.2070 H         1 <0>         0.4163
     45 H14        -8.8937   -2.8361    4.5153 H         1 <0>         0.1264
     46 H15        -9.3391   -3.6663    2.1927 H         1 <0>         0.1258
     47 H16       -10.9780   -3.6071    0.3596 H         1 <0>         0.1338
     48 H17       -12.4904   -1.6788    0.1192 H         1 <0>         0.1388
     49 H18       -12.3629    0.1907    1.7123 H         1 <0>         0.1403
     50 H19        -8.0348   -1.8141    6.6413 H         1 <0>         0.1279
     51 H20        -8.6089   -0.2423    8.4440 H         1 <0>         0.1319
     52 H21       -10.1778    1.6066    8.0149 H         1 <0>         0.1368
     53 H22       -11.1719    1.8838    5.7816 H         1 <0>         0.1377
     54 H23        -1.4577   -0.3974    2.1707 H         1 <0>         0.0823
     55 H24        -2.3293    0.9182    1.3413 H         1 <0>         0.0817
@<TRIPOS>BOND
     1    1    2 1
     2    1   33 1
     3    1   34 1
     4    1   35 1
     5    2    3 1
     6    2   36 1
     7    2   37 1
     8    3    4 1
     9    3   32 1
    10    3    5 1
    11    5    6 1
    12    5   38 1
    13    5   39 1
    14    6    7 1
    15    6   40 1
    16    6   41 1
    17    7   11 1
    18    7    8 2
    19    8    9 1
    20    8   32 1
    21    9   10 1
    22   10   11 2
    23   10   15 1
    24   11   12 1
    25   12   13 2
    26   12   14 am
    27   14   42 1
    28   14   43 1
    29   15   16 am
    30   15   44 1
    31   16   17 2
    32   16   18 1
    33   18   27 1
    34   18   19 1
    35   18   45 1
    36   19   24 ar
    37   19   20 ar
    38   20   21 ar
    39   20   46 1
    40   21   22 ar
    41   21   47 1
    42   22   23 ar
    43   22   48 1
    44   23   24 ar
    45   23   49 1
    46   24   25 1
    47   25   26 1
    48   26   31 ar
    49   26   27 ar
    50   27   28 ar
    51   28   29 ar
    52   28   50 1
    53   29   30 ar
    54   29   51 1
    55   30   31 ar
    56   30   52 1
    57   31   53 1
    58   32   54 1
    59   32   55 1
@<TRIPOS>MOLECULE
ZINC46581460
   45    47     0     0     0
SMALL
USER_CHARGES

@<TRIPOS>ATOM
      1 C1          1.1696    1.2375    0.7774 C.3       1 <0>        -0.1175
      2 C2          1.4395   -0.2444    0.7330 C.ar      1 <0>        -0.1128
      3 C3          1.4947   -0.9008   -0.4812 C.ar      1 <0>        -0.0867
      4 C4          1.7422   -2.2602   -0.5235 C.ar      1 <0>        -0.1243
      5 C5          1.9361   -2.9679    0.6503 C.ar      1 <0>        -0.0188
      6 C6          1.8820   -2.3165    1.8680 C.ar      1 <0>        -0.1331
      7 C7          1.6387   -0.9500    1.9123 C.ar      1 <0>         0.1566
      8 N1          1.5891   -0.2864    3.1431 N.am      1 <0>        -0.6566
      9 C8          1.3550   -0.9808    4.2742 C.2       1 <0>         0.5376
     10 O1          1.2708   -2.1902    4.2369 O.2       1 <0>        -0.4920
     11 C9          1.1978   -0.2547    5.5854 C.3       1 <0>        -0.1188
     12 H1          0.6200    0.6563    5.4292 H         1 <0>         0.1263
     13 C10         2.5785    0.1054    6.1376 C.3       1 <0>        -0.1445
     14 S1          0.3333   -1.3237    6.7688 S.3       1 <0>         0.1055
     15 C11         0.0980   -0.2948    8.1797 C.ar      1 <0>         0.3447
     16 N2          0.5361    0.9586    8.1525 N.ar      1 <0>        -0.5921
     17 C12         0.3882    1.7769    9.1802 C.ar      1 <0>         0.5023
     18 C13        -0.2599    1.3077   10.3569 C.ar      1 <0>        -0.2450
     19 C14        -0.5401    2.0036   11.6016 C.2       1 <0>        -0.0868
     20 C15        -1.1719    1.3519   12.5882 C.2       1 <0>        -0.1458
     21 S2         -1.4424   -0.2735   11.9073 S.3       1 <0>         0.1152
     22 C16        -0.6992   -0.0331   10.3152 C.ar      1 <0>         0.1579
     23 N3         -0.5180   -0.7850    9.2470 N.ar      1 <0>        -0.4940
     24 C17        -1.5604    1.8698   13.9490 C.3       1 <0>        -0.0710
     25 C18        -0.1248    3.4410   11.7813 C.3       1 <0>        -0.1157
     26 N4          0.8589    3.0755    9.1126 N.pl3     1 <0>        -0.8368
     27 Cl1         2.2467   -4.6750    0.5927 Cl        1 <0>        -0.0625
     28 H2          2.1135    1.7804    0.7287 H         1 <0>         0.0754
     29 H3          0.5447    1.5186   -0.0703 H         1 <0>         0.0769
     30 H4          0.6553    1.4855    1.7059 H         1 <0>         0.0637
     31 H5          1.3438   -0.3514   -1.3987 H         1 <0>         0.1373
     32 H6          1.7841   -2.7712   -1.4740 H         1 <0>         0.1352
     33 H7          2.0325   -2.8689    2.7838 H         1 <0>         0.1742
     34 H8          1.7231    0.6735    3.1823 H         1 <0>         0.4161
     35 H9          2.4648    0.6307    7.0859 H         1 <0>         0.0900
     36 H10         3.1563   -0.8055    6.2937 H         1 <0>         0.0739
     37 H11         3.0980    0.7478    5.4265 H         1 <0>         0.0704
     38 H12        -2.5594    2.3032   13.9012 H         1 <0>         0.0829
     39 H13        -1.5546    1.0485   14.6656 H         1 <0>         0.0779
     40 H14        -0.8483    2.6323   14.2645 H         1 <0>         0.0842
     41 H15        -0.9160    4.0961   11.4167 H         1 <0>         0.0760
     42 H16         0.0520    3.6387   12.8386 H         1 <0>         0.0793
     43 H17         0.7899    3.6280   11.2188 H         1 <0>         0.0721
     44 H18         1.5753    3.3003    8.4985 H         1 <0>         0.4078
     45 H19         0.4727    3.7615    9.6793 H         1 <0>         0.4158
@<TRIPOS>BOND
     1    1    2 1
     2    1   28 1
     3    1   29 1
     4    1   30 1
     5    2    7 ar
     6    2    3 ar
     7    3    4 ar
     8    3   31 1
     9    4    5 ar
    10    4   32 1
    11    5    6 ar
    12    5   27 1
    13    6    7 ar
    14    6   33 1
    15    7    8 1
    16    8    9 am
    17    8   34 1
    18    9   10 2
    19    9   11 1
    20   11   12 1
    21   11   13 1
    22   11   14 1
    23   13   35 1
    24   13   36 1
    25   13   37 1
    26   14   15 1
    27   15   23 ar
    28   15   16 ar
    29   16   17 ar
    30   17   18 ar
    31   17   26 1
    32   18   22 ar
    33   18   19 1
    34   19   20 2
    35   19   25 1
    36   20   21 1
    37   20   24 1
    38   21   22 1
    39   22   23 ar
    40   24   38 1
    41   24   39 1
    42   24   40 1
    43   25   41 1
    44   25   42 1
    45   25   43 1
    46   26   44 1
    47   26   45 1
@<TRIPOS>MOLECULE
ZINC03341234
   52    54     0     0     0
SMALL
USER_CHARGES
2,4-dichloro-5-[(5-chloro-2,4-dimethoxy-phenyl)sulfamoyl]-N-cyclopentyl-benzamide
@<TRIPOS>ATOM
      1 C1         -2.7796    7.6035   -1.9970 C.3       1 <0>         0.0227
      2 O1         -2.2368    7.4157   -0.6886 O.3       1 <0>        -0.3046
      3 C2         -1.0075    7.9460   -0.4480 C.ar      1 <0>         0.1633
      4 C3         -0.3399    8.6314   -1.4495 C.ar      1 <0>        -0.2607
      5 C4          0.9130    9.1718   -1.2027 C.ar      1 <0>         0.1687
      6 C5          1.5013    9.0218    0.0452 C.ar      1 <0>        -0.0709
      7 C6          0.8345    8.3428    1.0488 C.ar      1 <0>        -0.0946
      8 C7         -0.4188    7.8008    0.8057 C.ar      1 <0>         0.1147
      9 N1         -1.0923    7.1070    1.8212 N.pl3     1 <0>        -1.0364
     10 S1         -0.9472    7.5977    3.3961 S.o2      1 <0>         2.6888
     11 O2         -1.1164    9.0086    3.3991 O.2       1 <0>        -0.9292
     12 O3         -1.7659    6.7306    4.1688 O.2       1 <0>        -0.9211
     13 C8          0.7168    7.2891    3.8867 C.ar      1 <0>        -0.6921
     14 C9          1.5371    8.3409    4.2359 C.ar      1 <0>         0.0279
     15 C10         2.8553    8.0954    4.6250 C.ar      1 <0>        -0.1396
     16 C11         3.3351    6.7830    4.6578 C.ar      1 <0>         0.0766
     17 C12         2.5035    5.7389    4.3058 C.ar      1 <0>        -0.1245
     18 C13         1.1958    5.9899    3.9261 C.ar      1 <0>         0.0878
     19 Cl1         0.1538    4.6711    3.4916 Cl        1 <0>        -0.0153
     20 Cl2         4.9724    6.4668    5.1406 Cl        1 <0>         0.0085
     21 C14         3.7393    9.2179    4.9998 C.2       1 <0>         0.5566
     22 O4          4.8867    9.0012    5.3381 O.2       1 <0>        -0.5035
     23 N2          3.2738   10.4823    4.9666 N.am      1 <0>        -0.7177
     24 C15         4.1506   11.5956    5.3384 C.3       1 <0>         0.1414
     25 C16         4.0783   11.8399    6.8599 C.3       1 <0>        -0.1359
     26 C17         4.1598   13.3801    7.0016 C.3       1 <0>        -0.1248
     27 C18         3.3255   13.8790    5.7957 C.3       1 <0>        -0.1251
     28 C19         3.6720   12.8921    4.6618 C.3       1 <0>        -0.1337
     29 Cl3         3.0732    9.6929    0.3490 Cl        1 <0>        -0.0404
     30 O5          1.5684    9.8449   -2.1863 O.3       1 <0>        -0.2972
     31 C20         0.9068    9.9563   -3.4480 C.3       1 <0>         0.0225
     32 H1         -3.7611    7.1328   -2.0543 H         1 <0>         0.1084
     33 H2         -2.8757    8.6700   -2.2009 H         1 <0>         0.0607
     34 H3         -2.1161    7.1511   -2.7340 H         1 <0>         0.0598
     35 H4         -0.7952    8.7451   -2.4222 H         1 <0>         0.1528
     36 H5          1.2920    8.2304    2.0206 H         1 <0>         0.1446
     37 H6         -1.6433    6.3396    1.6011 H         1 <0>         0.4346
     38 H7          1.1607    9.3528    4.2082 H         1 <0>         0.1652
     39 H8          2.8722    4.7241    4.3309 H         1 <0>         0.1658
     40 H9          2.3584   10.6552    4.6967 H         1 <0>         0.3994
     41 H10         5.1768   11.3771    5.0429 H         1 <0>         0.0966
     42 H11         3.1351   11.4693    7.2613 H         1 <0>         0.0710
     43 H12         4.9208   11.3653    7.3629 H         1 <0>         0.0729
     44 H13         5.1923   13.7210    6.9244 H         1 <0>         0.0702
     45 H14         3.7136   13.7058    7.9412 H         1 <0>         0.0700
     46 H15         3.6187   14.8925    5.5221 H         1 <0>         0.0699
     47 H16         2.2608   13.8377    6.0253 H         1 <0>         0.0685
     48 H17         4.4662   13.3032    4.0386 H         1 <0>         0.0775
     49 H18         2.7879   12.6928    4.0561 H         1 <0>         0.0736
     50 H19         1.5368   10.5145   -4.1406 H         1 <0>         0.1080
     51 H20        -0.0405   10.4791   -3.3166 H         1 <0>         0.0595
     52 H21         0.7195    8.9603   -3.8493 H         1 <0>         0.0589
@<TRIPOS>BOND
     1    1    2 1
     2    1   32 1
     3    1   33 1
     4    1   34 1
     5    2    3 1
     6    3    8 ar
     7    3    4 ar
     8    4    5 ar
     9    4   35 1
    10    5    6 ar
    11    5   30 1
    12    6    7 ar
    13    6   29 1
    14    7    8 ar
    15    7   36 1
    16    8    9 1
    17    9   10 1
    18    9   37 1
    19   10   11 2
    20   10   12 2
    21   10   13 1
    22   13   18 ar
    23   13   14 ar
    24   14   15 ar
    25   14   38 1
    26   15   16 ar
    27   15   21 1
    28   16   17 ar
    29   16   20 1
    30   17   18 ar
    31   17   39 1
    32   18   19 1
    33   21   22 2
    34   21   23 am
    35   23   24 1
    36   23   40 1
    37   24   28 1
    38   24   25 1
    39   24   41 1
    40   25   26 1
    41   25   42 1
    42   25   43 1
    43   26   27 1
    44   26   44 1
    45   26   45 1
    46   27   28 1
    47   27   46 1
    48   27   47 1
    49   28   48 1
    50   28   49 1
    51   30   31 1
    52   31   50 1
    53   31   51 1
    54   31   52 1
@<TRIPOS>MOLECULE
ZINC20459042
   55    58     0     0     0
SMALL
USER_CHARGES
O8-ethyl O6-methyl (2E,5R)-7-amino-5-(2-fluorophenyl)-2-[(2-fluorophenyl)methylene]-3-oxo-5H-thiazolo[3,2-a]pyridine-6,8-dicarboxylate
@<TRIPOS>ATOM
      1 C1         -1.3231   -0.0915    0.6973 C.3       1 <0>        -0.1607
      2 C2         -0.4213   -0.2179   -0.5323 C.3       1 <0>         0.0605
      3 O1         -1.0803    0.3489   -1.6665 O.3       1 <0>        -0.3608
      4 C3         -0.4151    0.3180   -2.8403 C.2       1 <0>         0.5301
      5 O2          0.6950   -0.1775   -2.8977 O.2       1 <0>        -0.5013
      6 C4         -1.0092    0.8624   -4.0061 C.2       1 <0>        -0.2347
      7 C5         -0.2733    0.9062   -5.1845 C.2       1 <0>         0.2366
      8 N1         -0.7581    1.4071   -6.3639 N.am      1 <0>        -0.5451
      9 C6          0.0477    1.3911   -7.4411 C.2       1 <0>         0.5441
     10 O3         -0.3191    1.8242   -8.5177 O.2       1 <0>        -0.4400
     11 C7          1.3967    0.8397   -7.2530 C.2       1 <0>        -0.2660
     12 C8          2.4065    0.7026   -8.1504 C.2       1 <0>         0.0907
     13 C9          2.2808    1.2864   -9.4921 C.ar      1 <0>        -0.1331
     14 C10         1.7310    2.5634   -9.6558 C.ar      1 <0>        -0.0175
     15 C11         1.6165    3.1040  -10.9180 C.ar      1 <0>        -0.1353
     16 C12         2.0437    2.3890  -12.0246 C.ar      1 <0>        -0.0628
     17 C13         2.5885    1.1266  -11.8747 C.ar      1 <0>        -0.1642
     18 C14         2.7160    0.5706  -10.6161 C.ar      1 <0>         0.1340
     19 F1          3.2538   -0.6601  -10.4698 F         1 <0>        -0.1311
     20 S1          1.3424    0.3875   -5.5280 S.3       1 <0>         0.1932
     21 C15        -2.1464    1.9370   -6.3535 C.3       1 <0>         0.2766
     22 H1         -1.9890    3.0118   -6.5269 H         1 <0>         0.0966
     23 C16        -2.9516    1.9006   -5.0832 C.2       1 <0>        -0.4055
     24 C17        -2.3790    1.3695   -3.9377 C.2       1 <0>         0.4064
     25 N2         -3.0873    1.3199   -2.7574 N.pl3     1 <0>        -0.8174
     26 C18        -4.2590    2.3951   -5.0583 C.2       1 <0>         0.5455
     27 O4         -4.8681    2.4546   -4.0042 O.2       1 <0>        -0.5573
     28 O5         -4.8476    2.8070   -6.2030 O.3       1 <0>        -0.3474
     29 C19        -6.1849    3.3007   -6.1037 C.3       1 <0>         0.0337
     30 C20        -2.9232    1.1804   -7.4000 C.ar      1 <0>        -0.1180
     31 C21        -3.5612    1.8652   -8.4171 C.ar      1 <0>        -0.0371
     32 C22        -4.2690    1.1711   -9.3803 C.ar      1 <0>        -0.1325
     33 C23        -4.3492   -0.2080   -9.3212 C.ar      1 <0>        -0.0848
     34 C24        -3.7169   -0.8943   -8.3022 C.ar      1 <0>        -0.1608
     35 C25        -3.0027   -0.2004   -7.3398 C.ar      1 <0>         0.1115
     36 F2         -2.3837   -0.8704   -6.3433 F         1 <0>        -0.1381
     37 H2         -0.8158   -0.5278    1.5704 H         1 <0>         0.0858
     38 H3         -2.2670   -0.6266    0.5163 H         1 <0>         0.0691
     39 H4         -1.5348    0.9708    0.8891 H         1 <0>         0.0698
     40 H5          0.5226    0.3172   -0.3513 H         1 <0>         0.0759
     41 H6         -0.2096   -1.2802   -0.7241 H         1 <0>         0.0751
     42 H7          3.3187    0.1543   -7.8724 H         1 <0>         0.1668
     43 H8          1.3969    3.1234   -8.7948 H         1 <0>         0.1315
     44 H9          1.1924    4.0891  -11.0450 H         1 <0>         0.1346
     45 H10         1.9505    2.8197  -13.0106 H         1 <0>         0.1372
     46 H11         2.9187    0.5758  -12.7430 H         1 <0>         0.1414
     47 H12        -4.1172    1.7043   -2.7174 H         1 <0>         0.4443
     48 H13        -2.6231    0.8959   -1.8548 H         1 <0>         0.4221
     49 H14        -6.5404    3.5995   -7.1009 H         1 <0>         0.0978
     50 H15        -6.2055    4.1708   -5.4311 H         1 <0>         0.0580
     51 H16        -6.8382    2.5117   -5.7027 H         1 <0>         0.0569
     52 H17        -3.5030    2.9427   -8.4617 H         1 <0>         0.1322
     53 H18        -4.7639    1.7067  -10.1770 H         1 <0>         0.1295
     54 H19        -4.9059   -0.7490  -10.0721 H         1 <0>         0.1310
     55 H20        -3.7799   -1.9715   -8.2561 H         1 <0>         0.1326
@<TRIPOS>BOND
     1    1    2 1
     2    1   37 1
     3    1   38 1
     4    1   39 1
     5    2    3 1
     6    2   40 1
     7    2   41 1
     8    3    4 1
     9    4    5 2
    10    4    6 1
    11    6   24 1
    12    6    7 2
    13    7   20 1
    14    7    8 1
    15    8    9 am
    16    8   21 1
    17    9   10 2
    18    9   11 1
    19   11   12 2
    20   11   20 1
    21   12   13 1
    22   12   42 1
    23   13   18 ar
    24   13   14 ar
    25   14   15 ar
    26   14   43 1
    27   15   16 ar
    28   15   44 1
    29   16   17 ar
    30   16   45 1
    31   17   18 ar
    32   17   46 1
    33   18   19 1
    34   21   22 1
    35   21   23 1
    36   21   30 1
    37   23   24 2
    38   23   26 1
    39   24   25 1
    40   25   47 1
    41   25   48 1
    42   26   27 2
    43   26   28 1
    44   28   29 1
    45   29   49 1
    46   29   50 1
    47   29   51 1
    48   30   35 ar
    49   30   31 ar
    50   31   32 ar
    51   31   52 1
    52   32   33 ar
    53   32   53 1
    54   33   34 ar
    55   33   54 1
    56   34   35 ar
    57   34   55 1
    58   35   36 1
@<TRIPOS>MOLECULE
ZINC34716503
   67    71     0     0     0
SMALL
USER_CHARGES

@<TRIPOS>ATOM
      1 C1         -0.9492    1.2943    0.1552 C.3       1 <0>        -0.1114
      2 C2         -0.4251   -0.1166    0.0794 C.ar      1 <0>        -0.1244
      3 C3         -0.4320   -0.7929   -1.1260 C.ar      1 <0>        -0.0843
      4 C4          0.0486   -2.0869   -1.1959 C.ar      1 <0>        -0.0682
      5 C5          0.5369   -2.7065   -0.0603 C.ar      1 <0>        -0.0197
      6 C6          0.5453   -2.0322    1.1458 C.ar      1 <0>        -0.1577
      7 C7          0.0688   -0.7338    1.2159 C.ar      1 <0>         0.0972
      8 F1          0.0809   -0.0720    2.3936 F         1 <0>        -0.1441
      9 C8          0.0400   -2.8233   -2.5107 C.3       1 <0>         0.2039
     10 H1         -0.4022   -2.1912   -3.2807 H         1 <0>         0.0855
     11 C9          1.4751   -3.1860   -2.9056 C.3       1 <0>        -0.1289
     12 C10         1.4494   -4.0523   -4.1669 C.3       1 <0>        -0.0992
     13 C11         0.6847   -5.3472   -3.8830 C.3       1 <0>        -0.1233
     14 H2          1.1640   -5.8802   -3.0619 H         1 <0>         0.1046
     15 C12        -0.7593   -5.0090   -3.4992 C.3       1 <0>         0.1249
     16 N1         -0.7436   -4.0591   -2.3780 N.am      1 <0>        -0.6238
     17 C13        -1.4316   -4.3179   -1.2483 C.2       1 <0>         0.7002
     18 O1         -1.4931   -3.4808   -0.3687 O.2       1 <0>        -0.5506
     19 N2         -2.0514   -5.5047   -1.0937 N.am      1 <0>        -0.7434
     20 C14        -2.8900   -5.7453    0.0831 C.3       1 <0>         0.1811
     21 C15        -3.4625   -7.1377    0.0159 C.ar      1 <0>        -0.1117
     22 C16        -4.6741   -7.3573   -0.6123 C.ar      1 <0>        -0.0997
     23 C17        -5.1992   -8.6345   -0.6740 C.ar      1 <0>        -0.1206
     24 C18        -4.5125   -9.6923   -0.1080 C.ar      1 <0>        -0.1096
     25 C19        -3.3004   -9.4728    0.5194 C.ar      1 <0>        -0.1212
     26 C20        -2.7732   -8.1963    0.5774 C.ar      1 <0>        -0.0997
     27 C21         0.6883   -6.2141   -5.1157 C.2       1 <0>         0.5207
     28 O2          1.2475   -5.8341   -6.1226 O.2       1 <0>        -0.5260
     29 N3          0.0703   -7.4117   -5.0991 N.am      1 <0>        -0.7280
     30 C22         0.0738   -8.2544   -6.2975 C.3       1 <0>         0.1655
     31 C23        -0.6793   -9.5293   -6.0172 C.ar      1 <0>        -0.1037
     32 C24        -0.0098  -10.6299   -5.5156 C.ar      1 <0>        -0.0875
     33 C25        -0.6963  -11.8014   -5.2565 C.ar      1 <0>        -0.1014
     34 C26        -2.0583  -11.8752   -5.4997 C.ar      1 <0>         0.0429
     35 C27        -2.7328  -10.7665   -6.0050 C.ar      1 <0>         0.0319
     36 C28        -2.0392   -9.5938   -6.2569 C.ar      1 <0>        -0.0816
     37 O3         -4.0505  -11.0890   -6.1560 O.3       1 <0>        -0.3068
     38 C29        -4.1003  -12.5276   -6.1246 C.3       1 <0>         0.2127
     39 O4         -2.9535  -12.8923   -5.3339 O.3       1 <0>        -0.3070
     40 H3         -0.1367    1.9946   -0.0389 H         1 <0>         0.0703
     41 H4         -1.7328    1.4313   -0.5899 H         1 <0>         0.0685
     42 H5         -1.3570    1.4774    1.1493 H         1 <0>         0.0665
     43 H6         -0.8135   -0.3101   -2.0136 H         1 <0>         0.1239
     44 H7          0.9116   -3.7179   -0.1159 H         1 <0>         0.1130
     45 H8          0.9264   -2.5164    2.0327 H         1 <0>         0.1256
     46 H9          2.0398   -2.2745   -3.1016 H         1 <0>         0.0878
     47 H10         1.9470   -3.7394   -2.0937 H         1 <0>         0.0726
     48 H11         0.9552   -3.5077   -4.9715 H         1 <0>         0.0766
     49 H12         2.4705   -4.2913   -4.4642 H         1 <0>         0.0803
     50 H13        -1.2676   -4.5572   -4.3510 H         1 <0>         0.0802
     51 H14        -1.2806   -5.9185   -3.2004 H         1 <0>         0.0798
     52 H15        -1.9422   -6.1995   -1.7617 H         1 <0>         0.3921
     53 H16        -2.2874   -5.6434    0.9857 H         1 <0>         0.0761
     54 H17        -3.7025   -5.0191    0.1049 H         1 <0>         0.0746
     55 H18        -5.2107   -6.5309   -1.0546 H         1 <0>         0.1233
     56 H19        -6.1462   -8.8059   -1.1642 H         1 <0>         0.1238
     57 H20        -4.9231  -10.6900   -0.1556 H         1 <0>         0.1228
     58 H21        -2.7640  -10.2992    0.9619 H         1 <0>         0.1240
     59 H22        -1.8245   -8.0254    1.0643 H         1 <0>         0.1235
     60 H23        -0.3769   -7.7156   -4.2938 H         1 <0>         0.4010
     61 H24        -0.4067   -7.7214   -7.1179 H         1 <0>         0.0818
     62 H25         1.1017   -8.4923   -6.5713 H         1 <0>         0.0839
     63 H26         1.0520  -10.5745   -5.3261 H         1 <0>         0.1412
     64 H27        -0.1707  -12.6597   -4.8646 H         1 <0>         0.1393
     65 H28        -2.5605   -8.7311   -6.6446 H         1 <0>         0.1377
     66 H29        -5.0188  -12.8688   -5.6471 H         1 <0>         0.1344
     67 H30        -4.0166  -12.9359   -7.1318 H         1 <0>         0.0875
@<TRIPOS>BOND
     1    1    2 1
     2    1   40 1
     3    1   41 1
     4    1   42 1
     5    2    7 ar
     6    2    3 ar
     7    3    4 ar
     8    3   43 1
     9    4    5 ar
    10    4    9 1
    11    5    6 ar
    12    5   44 1
    13    6    7 ar
    14    6   45 1
    15    7    8 1
    16    9   10 1
    17    9   16 1
    18    9   11 1
    19   11   12 1
    20   11   46 1
    21   11   47 1
    22   12   13 1
    23   12   48 1
    24   12   49 1
    25   13   14 1
    26   13   15 1
    27   13   27 1
    28   15   16 1
    29   15   50 1
    30   15   51 1
    31   16   17 am
    32   17   18 2
    33   17   19 am
    34   19   20 1
    35   19   52 1
    36   20   21 1
    37   20   53 1
    38   20   54 1
    39   21   26 ar
    40   21   22 ar
    41   22   23 ar
    42   22   55 1
    43   23   24 ar
    44   23   56 1
    45   24   25 ar
    46   24   57 1
    47   25   26 ar
    48   25   58 1
    49   26   59 1
    50   27   28 2
    51   27   29 am
    52   29   30 1
    53   29   60 1
    54   30   31 1
    55   30   61 1
    56   30   62 1
    57   31   36 ar
    58   31   32 ar
    59   32   33 ar
    60   32   63 1
    61   33   34 ar
    62   33   64 1
    63   34   39 1
    64   34   35 ar
    65   35   36 ar
    66   35   37 1
    67   36   65 1
    68   37   38 1
    69   38   39 1
    70   38   66 1
    71   38   67 1
@<TRIPOS>MOLECULE
ZINC38611433
   49    52     0     0     0
SMALL
USER_CHARGES

@<TRIPOS>ATOM
      1 C1         -0.0184    1.5028    0.0103 C.3       1 <0>        -0.1005
      2 C2          0.0021   -0.0041    0.0020 C.2       1 <0>         0.0066
      3 C3         -1.0636   -0.7678    0.0029 C.2       1 <0>        -0.1718
      4 C4         -2.5358   -0.4932    0.1451 C.3       1 <0>         0.1128
      5 H1         -3.0256   -0.5523   -0.8269 H         1 <0>         0.1163
      6 C5         -3.0649   -1.5770    1.0660 C.2       1 <0>        -0.2929
      7 C6         -2.3033   -2.6278    1.4356 C.2       1 <0>         0.4574
      8 O1         -1.0228   -2.8530    1.0907 O.3       1 <0>        -0.2781
      9 C7         -0.5292   -2.1980   -0.0810 C.3       1 <0>         0.1683
     10 H2         -0.8434   -2.7037   -0.9941 H         1 <0>         0.1678
     11 N1          0.9208   -1.9849   -0.0276 N.2       1 <0>        -0.1315
     12 N2          1.1266   -0.7647   -0.0133 N.2       1 <0>        -0.1108
     13 N3         -2.8958   -3.5624    2.2469 N.pl3     1 <0>        -0.8316
     14 C8         -4.4072   -1.4820    1.5558 C.1       1 <0>         0.2720
     15 N4         -5.4720   -1.4066    1.9444 N.1       1 <0>        -0.4372
     16 C9         -2.7553    0.8667    0.7563 C.ar      1 <0>        -0.0396
     17 C10        -3.4659    1.8285    0.0620 C.ar      1 <0>        -0.1718
     18 C11        -3.6688    3.0793    0.6221 C.ar      1 <0>         0.1255
     19 C12        -3.1567    3.3648    1.8841 C.ar      1 <0>         0.0952
     20 C13        -2.4457    2.3964    2.5753 C.ar      1 <0>        -0.0747
     21 C14        -2.2508    1.1478    2.0120 C.ar      1 <0>        -0.0957
     22 Br1        -1.7477    2.7795    4.2905 Br        1 <0>        -0.0203
     23 O2         -3.3530    4.5915    2.4379 O.3       1 <0>        -0.3049
     24 C15        -4.5272    4.7635    3.2340 C.3       1 <0>         0.1070
     25 C16        -4.5752    6.1750    3.7598 C.ar      1 <0>        -0.0865
     26 C17        -3.9830    6.4817    4.9707 C.ar      1 <0>        -0.0798
     27 C18        -4.0268    7.7761    5.4535 C.ar      1 <0>        -0.1141
     28 C19        -4.6634    8.7648    4.7246 C.ar      1 <0>        -0.0253
     29 C20        -5.2559    8.4572    3.5128 C.ar      1 <0>        -0.1143
     30 C21        -5.2066    7.1636    3.0284 C.ar      1 <0>        -0.0795
     31 Cl1        -4.7193   10.3906    5.3306 Cl        1 <0>        -0.0670
     32 O3         -4.3668    4.0263   -0.0602 O.3       1 <0>        -0.2988
     33 C22        -4.8625    3.6631   -1.3503 C.3       1 <0>         0.0216
     34 H3          1.0042    1.8801    0.0026 H         1 <0>         0.0852
     35 H4         -0.5455    1.8639   -0.8728 H         1 <0>         0.0845
     36 H5         -0.5286    1.8543    0.9071 H         1 <0>         0.0906
     37 H6         -3.8178   -3.4480    2.5256 H         1 <0>         0.4246
     38 H7         -2.3926   -4.3374    2.5418 H         1 <0>         0.4126
     39 H8         -3.8625    1.6047   -0.9174 H         1 <0>         0.1433
     40 H9         -1.6999    0.3926    2.5528 H         1 <0>         0.1373
     41 H10        -5.4105    4.5725    2.6246 H         1 <0>         0.0671
     42 H11        -4.5047    4.0648    4.0703 H         1 <0>         0.0663
     43 H12        -3.4864    5.7098    5.5398 H         1 <0>         0.1335
     44 H13        -3.5644    8.0156    6.3996 H         1 <0>         0.1363
     45 H14        -5.7533    9.2285    2.9435 H         1 <0>         0.1363
     46 H15        -5.6649    6.9243    2.0802 H         1 <0>         0.1348
     47 H16        -5.5387    2.8137   -1.2538 H         1 <0>         0.0580
     48 H17        -5.3988    4.5070   -1.7843 H         1 <0>         0.1060
     49 H18        -4.0281    3.3916   -1.9969 H         1 <0>         0.0600
@<TRIPOS>BOND
     1    1    2 1
     2    1   34 1
     3    1   35 1
     4    1   36 1
     5    2   12 1
     6    2    3 2
     7    3    9 1
     8    3    4 1
     9    4    5 1
    10    4    6 1
    11    4   16 1
    12    6    7 2
    13    6   14 1
    14    7    8 1
    15    7   13 1
    16    8    9 1
    17    9   10 1
    18    9   11 1
    19   11   12 2
    20   13   37 1
    21   13   38 1
    22   14   15 3
    23   16   21 ar
    24   16   17 ar
    25   17   18 ar
    26   17   39 1
    27   18   19 ar
    28   18   32 1
    29   19   20 ar
    30   19   23 1
    31   20   21 ar
    32   20   22 1
    33   21   40 1
    34   23   24 1
    35   24   25 1
    36   24   41 1
    37   24   42 1
    38   25   30 ar
    39   25   26 ar
    40   26   27 ar
    41   26   43 1
    42   27   28 ar
    43   27   44 1
    44   28   29 ar
    45   28   31 1
    46   29   30 ar
    47   29   45 1
    48   30   46 1
    49   32   33 1
    50   33   47 1
    51   33   48 1
    52   33   49 1
@<TRIPOS>MOLECULE
ZINC00714903
   48    52     0     0     0
SMALL
USER_CHARGES

@<TRIPOS>ATOM
      1 C1          0.0187    1.3849   -0.0117 C.ar      1 <0>        -0.0860
      2 C2          1.2092    2.0875   -0.0277 C.ar      1 <0>        -0.0947
      3 C3          2.4133    1.4075   -0.0461 C.ar      1 <0>        -0.0259
      4 C4          2.4256    0.0227   -0.0485 C.ar      1 <0>        -0.0288
      5 C5          1.2337   -0.6787   -0.0325 C.ar      1 <0>        -0.0987
      6 C6          0.0310    0.0027   -0.0141 C.ar      1 <0>        -0.1049
      7 C7         -1.2675   -0.7620    0.0038 C.3       1 <0>         0.1996
      8 H1         -2.0776   -0.1157   -0.3344 H         1 <0>         0.1283
      9 C8         -1.5582   -1.2496    1.4274 C.3       1 <0>        -0.1504
     10 C9         -0.3886   -2.0993    1.9372 C.3       1 <0>         0.1243
     11 H2          0.4784   -1.4615    2.1090 H         1 <0>         0.1343
     12 N1         -0.0618   -3.1106    0.9280 N.pl3     1 <0>        -0.3938
     13 C10        -0.4335   -3.0203   -0.3836 C.2       1 <0>         0.3607
     14 C11         0.0247   -4.1127   -1.0259 C.2       1 <0>        -0.2568
     15 C12         0.7076   -4.9096   -0.0792 C.2       1 <0>         0.0667
     16 N2          0.6501   -4.2983    1.0911 N.2       1 <0>        -0.2457
     17 C13         1.3697   -6.2016   -0.3504 C.2       1 <0>         0.6047
     18 O1          1.3561   -6.6678   -1.4733 O.2       1 <0>        -0.4969
     19 N3          1.9891   -6.8639    0.6467 N.am      1 <0>        -0.6552
     20 C14         2.5327   -8.1329    0.4125 C.ar      1 <0>         0.1553
     21 C15         2.4978   -9.0982    1.4101 C.ar      1 <0>        -0.1292
     22 C16         3.0338  -10.3508    1.1804 C.ar      1 <0>        -0.0798
     23 C17         3.6072  -10.6476   -0.0456 C.ar      1 <0>         0.0184
     24 C18         3.6434   -9.6816   -1.0483 C.ar      1 <0>         0.0528
     25 C19         3.1016   -8.4279   -0.8190 C.ar      1 <0>        -0.1033
     26 O2          4.2536  -10.2154   -2.1466 O.3       1 <0>        -0.3055
     27 C20         4.9545  -11.3792   -1.6698 C.3       1 <0>         0.2129
     28 O3          4.1951  -11.7871   -0.5165 O.3       1 <0>        -0.3079
     29 N4         -1.1645   -1.9350   -0.8866 N.pl3     1 <0>        -0.7231
     30 C21        -0.7864   -2.7866    3.2450 C.3       1 <0>         0.4563
     31 F1         -1.8959   -3.6089    3.0209 F         1 <0>        -0.1712
     32 F2          0.2823   -3.5615    3.7083 F         1 <0>        -0.1594
     33 F3         -1.1093   -1.8180    4.2014 F         1 <0>        -0.1709
     34 Cl1         3.9362   -0.8324   -0.0723 Cl        1 <0>        -0.0377
     35 Cl2         3.9085    2.2893   -0.0668 Cl        1 <0>        -0.0397
     36 H3         -0.9214    1.9162    0.0073 H         1 <0>         0.1455
     37 H4          1.1989    3.1675   -0.0261 H         1 <0>         0.1485
     38 H5          1.2426   -1.7586   -0.0348 H         1 <0>         0.1456
     39 H6         -1.6942   -0.3900    2.0838 H         1 <0>         0.1247
     40 H7         -2.4680   -1.8498    1.4258 H         1 <0>         0.1080
     41 H8         -0.1066   -4.3386   -2.0738 H         1 <0>         0.1667
     42 H9          2.0582   -6.4615    1.5266 H         1 <0>         0.4224
     43 H10         2.0514   -8.8696    2.3666 H         1 <0>         0.1440
     44 H11         3.0061  -11.0998    1.9580 H         1 <0>         0.1422
     45 H12         3.1250   -7.6788   -1.5966 H         1 <0>         0.1532
     46 H13         4.9531  -12.1639   -2.4264 H         1 <0>         0.1330
     47 H14         5.9747  -11.1220   -1.3852 H         1 <0>         0.0857
     48 H15        -1.5793   -1.9524   -1.7632 H         1 <0>         0.4315
@<TRIPOS>BOND
     1    1    6 ar
     2    1    2 ar
     3    1   36 1
     4    2    3 ar
     5    2   37 1
     6    3    4 ar
     7    3   35 1
     8    4    5 ar
     9    4   34 1
    10    5    6 ar
    11    5   38 1
    12    6    7 1
    13    7    8 1
    14    7   29 1
    15    7    9 1
    16    9   10 1
    17    9   39 1
    18    9   40 1
    19   10   11 1
    20   10   12 1
    21   10   30 1
    22   12   16 1
    23   12   13 1
    24   13   14 2
    25   13   29 1
    26   14   15 1
    27   14   41 1
    28   15   16 2
    29   15   17 1
    30   17   18 2
    31   17   19 am
    32   19   20 1
    33   19   42 1
    34   20   25 ar
    35   20   21 ar
    36   21   22 ar
    37   21   43 1
    38   22   23 ar
    39   22   44 1
    40   23   28 1
    41   23   24 ar
    42   24   25 ar
    43   24   26 1
    44   25   45 1
    45   26   27 1
    46   27   28 1
    47   27   46 1
    48   27   47 1
    49   29   48 1
    50   30   31 1
    51   30   32 1
    52   30   33 1
@<TRIPOS>MOLECULE
ZINC08900736
   43    45     0     0     0
SMALL
USER_CHARGES
N-[4-iodo-2-(trifluoromethyl)phenyl]-3-nitro-4-pyrrolidin-1-yl-benzamide
@<TRIPOS>ATOM
      1 C1         -4.8684   -0.3693   -0.0937 C.ar      1 <0>        -0.0251
      2 C2         -6.0678   -1.0368   -0.1939 C.ar      1 <0>        -0.1594
      3 C3         -6.0849   -2.4142   -0.3939 C.ar      1 <0>         0.1869
      4 C4         -4.8895   -3.1203   -0.4994 C.ar      1 <0>        -0.0333
      5 C5         -3.6871   -2.4579   -0.4063 C.ar      1 <0>         0.0149
      6 C6         -3.6665   -1.0744   -0.2049 C.ar      1 <0>        -0.1447
      7 C7         -2.3794   -0.3613   -0.1041 C.2       1 <0>         0.5723
      8 O1         -1.3345   -0.9767   -0.1961 O.2       1 <0>        -0.4919
      9 N1         -2.3612    0.9723    0.0899 N.am      1 <0>        -0.6733
     10 C8         -1.1448    1.6627    0.0881 C.ar      1 <0>         0.2158
     11 C9          0.0015    1.0544    0.5836 C.ar      1 <0>        -0.1183
     12 C10         1.2020    1.7366    0.5757 C.ar      1 <0>        -0.0293
     13 C11         1.2629    3.0266    0.0792 C.ar      1 <0>        -0.1220
     14 C12         0.1222    3.6369   -0.4101 C.ar      1 <0>        -0.0173
     15 C13        -1.0816    2.9595   -0.4048 C.ar      1 <0>        -0.2107
     16 C14        -2.3239    3.6249   -0.9384 C.3       1 <0>         0.5114
     17 F1         -2.0092    4.9147   -1.3795 F         1 <0>        -0.1671
     18 F2         -2.8310    2.8775   -2.0068 F         1 <0>        -0.1709
     19 F3         -3.2848    3.7003    0.0756 F         1 <0>        -0.1776
     20 I1          3.0865    4.0579    0.0691 I         1 <0>        -0.0149
     21 N2         -4.9122   -4.5849   -0.7125 N.pl3     1 <0>         0.0255
     22 O2         -3.8710   -5.2169   -0.7096 O.2       1 <0>        -0.1839
     23 O3         -5.9720   -5.1580   -0.8907 O.3       1 <0>        -0.0905
     24 N3         -7.2984   -3.0865   -0.4889 N.pl3     1 <0>        -0.4808
     25 C15        -8.1658   -2.7868    0.6790 C.3       1 <0>         0.0351
     26 C16        -9.5834   -3.1509    0.1705 C.3       1 <0>        -0.1208
     27 C17        -9.5505   -2.6895   -1.3047 C.3       1 <0>        -0.1295
     28 C18        -8.0574   -2.6445   -1.6789 C.3       1 <0>         0.0418
     29 H1         -4.8558    0.6988    0.0659 H         1 <0>         0.1442
     30 H2         -6.9968   -0.4920   -0.1125 H         1 <0>         0.1560
     31 H3         -2.7602   -3.0061   -0.4882 H         1 <0>         0.1728
     32 H4         -3.1916    1.4532    0.2308 H         1 <0>         0.4141
     33 H5         -0.0453    0.0472    0.9706 H         1 <0>         0.1633
     34 H6          2.0944    1.2627    0.9570 H         1 <0>         0.1472
     35 H7          0.1727    4.6439   -0.7970 H         1 <0>         0.1514
     36 H8         -7.8915   -3.4082    1.5314 H         1 <0>         0.0906
     37 H9         -8.1100   -1.7296    0.9384 H         1 <0>         0.0559
     38 H10       -10.3450   -2.6060    0.7282 H         1 <0>         0.0795
     39 H11        -9.7519   -4.2259    0.2347 H         1 <0>         0.0842
     40 H12        -9.9948   -1.6989   -1.4012 H         1 <0>         0.0722
     41 H13       -10.0775   -3.4045   -1.9365 H         1 <0>         0.0820
     42 H14        -7.7718   -1.6267   -1.9446 H         1 <0>         0.0525
     43 H15        -7.8607   -3.3155   -2.5151 H         1 <0>         0.0920
@<TRIPOS>BOND
     1    1    6 ar
     2    1    2 ar
     3    1   29 1
     4    2    3 ar
     5    2   30 1
     6    3    4 ar
     7    3   24 1
     8    4    5 ar
     9    4   21 1
    10    5    6 ar
    11    5   31 1
    12    6    7 1
    13    7    8 2
    14    7    9 am
    15    9   10 1
    16    9   32 1
    17   10   15 ar
    18   10   11 ar
    19   11   12 ar
    20   11   33 1
    21   12   13 ar
    22   12   34 1
    23   13   14 ar
    24   13   20 1
    25   14   15 ar
    26   14   35 1
    27   15   16 1
    28   16   17 1
    29   16   18 1
    30   16   19 1
    31   21   22 2
    32   21   23 1
    33   24   28 1
    34   24   25 1
    35   25   26 1
    36   25   36 1
    37   25   37 1
    38   26   27 1
    39   26   38 1
    40   26   39 1
    41   27   28 1
    42   27   40 1
    43   27   41 1
    44   28   42 1
    45   28   43 1
@<TRIPOS>MOLECULE
ZINC14021394
   53    56     0     0     0
SMALL
USER_CHARGES
(3S)-N-[4-(2,4-dichlorophenyl)thiazol-2-yl]-1-(p-tolylsulfonyl)piperidine-3-carboxamide
@<TRIPOS>ATOM
      1 C1          0.1996  -11.5727   -1.2120 C.3       1 <0>        -0.1268
      2 C2         -0.5447  -10.3789   -0.6719 C.ar      1 <0>        -0.0266
      3 C3          0.0993   -9.4805    0.1582 C.ar      1 <0>        -0.1416
      4 C4         -0.5832   -8.3848    0.6529 C.ar      1 <0>        -0.0149
      5 C5         -1.9095   -8.1874    0.3171 C.ar      1 <0>        -0.6851
      6 C6         -2.5550   -9.0886   -0.5088 C.ar      1 <0>        -0.0161
      7 C7         -1.8713  -10.1819   -1.0069 C.ar      1 <0>        -0.1425
      8 S1         -2.7794   -6.7908    0.9476 S.o2      1 <0>         2.6906
      9 O1         -2.1101   -6.3991    2.1384 O.2       1 <0>        -0.9513
     10 O2         -4.1597   -7.1280    0.9252 O.2       1 <0>        -0.9510
     11 N1         -2.5761   -5.5565   -0.1375 N.pl3     1 <0>        -0.9980
     12 C8         -3.5246   -5.3686   -1.2438 C.3       1 <0>         0.1117
     13 C9         -4.0385   -3.9257   -1.2129 C.3       1 <0>        -0.1299
     14 C10        -2.8483   -2.9639   -1.2351 C.3       1 <0>        -0.1143
     15 C11        -1.9809   -3.1943    0.0045 C.3       1 <0>        -0.1125
     16 H1         -2.5804   -3.0405    0.9018 H         1 <0>         0.1179
     17 C12        -1.4436   -4.6288   -0.0126 C.3       1 <0>         0.1362
     18 C13        -0.8271   -2.2250   -0.0017 C.2       1 <0>         0.5259
     19 O3          0.3128   -2.6391   -0.0152 O.2       1 <0>        -0.4919
     20 N2         -1.0618   -0.8978    0.0078 N.am      1 <0>        -0.6070
     21 C14         0.0021   -0.0041    0.0020 C.2       1 <0>         0.3155
     22 N3         -0.0158    1.3158    0.0093 N.2       1 <0>        -0.5099
     23 C15         1.1067    2.0189    0.0023 C.2       1 <0>         0.1095
     24 C16         2.3073    1.3654   -0.0126 C.2       1 <0>        -0.2320
     25 S2          1.7583   -0.3363   -0.0165 S.3       1 <0>         0.1239
     26 C17         1.0614    3.5014    0.0102 C.ar      1 <0>        -0.0104
     27 C18         2.2451    4.2373    0.0081 C.ar      1 <0>        -0.0817
     28 C19         2.1977    5.6163    0.0097 C.ar      1 <0>        -0.1057
     29 C20         0.9771    6.2699    0.0249 C.ar      1 <0>        -0.0209
     30 C21        -0.2018    5.5447    0.0328 C.ar      1 <0>        -0.1072
     31 C22        -0.1658    4.1640    0.0256 C.ar      1 <0>         0.0001
     32 Cl1        -1.6449    3.2552    0.0349 Cl        1 <0>        -0.0233
     33 Cl2         0.9252    8.0051    0.0335 Cl        1 <0>        -0.0548
     34 H2          0.0909  -12.4106   -0.5234 H         1 <0>         0.0808
     35 H3         -0.2094  -11.8464   -2.1846 H         1 <0>         0.0737
     36 H4          1.2556  -11.3247   -1.3187 H         1 <0>         0.0739
     37 H5          1.1357   -9.6343    0.4199 H         1 <0>         0.1340
     38 H6         -0.0801   -7.6829    1.3014 H         1 <0>         0.1403
     39 H7         -3.5925   -8.9367   -0.7675 H         1 <0>         0.1398
     40 H8         -2.3744  -10.8836   -1.6558 H         1 <0>         0.1337
     41 H9         -4.3616   -6.0572   -1.1285 H         1 <0>         0.0992
     42 H10        -3.0238   -5.5578   -2.1933 H         1 <0>         0.0753
     43 H11        -4.6188   -3.7656   -0.3042 H         1 <0>         0.0761
     44 H12        -4.6684   -3.7452   -2.0839 H         1 <0>         0.0878
     45 H13        -3.2119   -1.9363   -1.2380 H         1 <0>         0.0757
     46 H14        -2.2547   -3.1416   -2.1318 H         1 <0>         0.0785
     47 H15        -0.7710   -4.7570   -0.8606 H         1 <0>         0.0866
     48 H16        -0.9077   -4.8294    0.9151 H         1 <0>         0.1055
     49 H17        -1.9734   -0.5666    0.0186 H         1 <0>         0.4277
     50 H18         3.3102    1.7662   -0.0196 H         1 <0>         0.2003
     51 H19         3.1980    3.7289    0.0011 H         1 <0>         0.1447
     52 H20         3.1145    6.1870    0.0036 H         1 <0>         0.1445
     53 H21        -1.1513    6.0593    0.0443 H         1 <0>         0.1461
@<TRIPOS>BOND
     1    1    2 1
     2    1   34 1
     3    1   35 1
     4    1   36 1
     5    2    7 ar
     6    2    3 ar
     7    3    4 ar
     8    3   37 1
     9    4    5 ar
    10    4   38 1
    11    5    6 ar
    12    5    8 1
    13    6    7 ar
    14    6   39 1
    15    7   40 1
    16    8    9 2
    17    8   10 2
    18    8   11 1
    19   11   17 1
    20   11   12 1
    21   12   13 1
    22   12   41 1
    23   12   42 1
    24   13   14 1
    25   13   43 1
    26   13   44 1
    27   14   15 1
    28   14   45 1
    29   14   46 1
    30   15   16 1
    31   15   17 1
    32   15   18 1
    33   17   47 1
    34   17   48 1
    35   18   19 2
    36   18   20 am
    37   20   21 1
    38   20   49 1
    39   21   25 1
    40   21   22 2
    41   22   23 1
    42   23   24 2
    43   23   26 1
    44   24   25 1
    45   24   50 1
    46   26   31 ar
    47   26   27 ar
    48   27   28 ar
    49   27   51 1
    50   28   29 ar
    51   28   52 1
    52   29   30 ar
    53   29   33 1
    54   30   31 ar
    55   30   53 1
    56   31   32 1
@<TRIPOS>MOLECULE
ZINC22860147
   68    74     0     0     0
SMALL
USER_CHARGES
N-[[2-[(5R,7S)-3-bromo-1-adamantyl]-1-methyl-ethylidene]amino]-3,6-dicyclopropyl-1-methyl-pyrazolo[5,4-b]pyridine-4-carboxamide
@<TRIPOS>ATOM
      1 C1          1.4549    6.6143   -5.2567 C.3       1 <0>        -0.1001
      2 C2          0.4228    5.5385   -5.4772 C.2       1 <0>         0.1063
      3 N1          0.1810    4.6848   -4.5544 N.2       1 <0>        -0.2247
      4 N2         -0.6793    3.6077   -4.8046 N.am      1 <0>        -0.5871
      5 C3         -1.0056    2.7605   -3.8086 C.2       1 <0>         0.5680
      6 O1         -0.5535    2.9309   -2.6929 O.2       1 <0>        -0.4713
      7 C4         -1.9132    1.6241   -4.0725 C.ar      1 <0>         0.0048
      8 C5         -2.3516    1.3381   -5.3642 C.ar      1 <0>        -0.1945
      9 C6         -3.2022    0.2631   -5.5709 C.ar      1 <0>         0.2111
     10 N3         -3.6079   -0.4972   -4.5778 N.ar      1 <0>        -0.4890
     11 C7         -3.2281   -0.2799   -3.3269 C.ar      1 <0>         0.3220
     12 C8         -2.3636    0.7915   -3.0241 C.ar      1 <0>        -0.1836
     13 C9         -2.1427    0.7662   -1.6306 C.2       1 <0>         0.1281
     14 N4         -2.8062   -0.2332   -1.1232 N.2       1 <0>        -0.2452
     15 N5         -3.4977   -0.9059   -2.1377 N.pl3     1 <0>        -0.3913
     16 C10        -4.3566   -2.0793   -1.9598 C.3       1 <0>         0.1102
     17 C11        -1.2784    1.7302   -0.8595 C.3       1 <0>        -0.1287
     18 C12         0.1958    1.3647   -0.6743 C.3       1 <0>        -0.1023
     19 C13        -0.7672    1.2811    0.5117 C.3       1 <0>        -0.1319
     20 C14        -3.6742   -0.0415   -6.9693 C.3       1 <0>        -0.2044
     21 C15        -3.5072    1.0529   -8.0254 C.3       1 <0>        -0.1157
     22 C16        -4.8989    0.7184   -7.4827 C.3       1 <0>        -0.1063
     23 C17        -0.3245    5.4678   -6.7839 C.3       1 <0>        -0.1145
     24 C18        -1.5963    6.3132   -6.6905 C.3       1 <0>        -0.0407
     25 C19        -2.4379    5.8389   -5.5040 C.3       1 <0>        -0.1103
     26 C20        -3.7097    6.6843   -5.4106 C.3       1 <0>        -0.0819
     27 H1         -4.3148    6.3434   -4.5576 H         1 <0>         0.0766
     28 C21        -3.3320    8.1537   -5.2130 C.3       1 <0>        -0.1126
     29 C22        -2.4904    8.6280   -6.3995 C.3       1 <0>        -0.0834
     30 H2         -2.2189    9.6845   -6.2575 H         1 <0>         0.0812
     31 C23        -1.2186    7.7826   -6.4929 C.3       1 <0>        -0.1087
     32 C24        -3.2983    8.4782   -7.6901 C.3       1 <0>        -0.1051
     33 C25        -3.6760    7.0088   -7.8877 C.3       1 <0>        -0.0030
     34 C26        -4.5176    6.5345   -6.7013 C.3       1 <0>        -0.1045
     35 C27        -2.4042    6.1634   -7.9811 C.3       1 <0>        -0.0977
     36 Br1        -4.7142    6.8163   -9.5461 Br        1 <0>        -0.1599
     37 H3          1.5222    7.2472   -6.1538 H         1 <0>         0.0829
     38 H4          2.4327    6.1498   -5.0615 H         1 <0>         0.0831
     39 H5          1.1631    7.2310   -4.3939 H         1 <0>         0.0828
     40 H6         -1.0884    3.4535   -5.8140 H         1 <0>         0.3958
     41 H7         -2.0320    1.9483   -6.1960 H         1 <0>         0.1392
     42 H8         -4.3831   -2.3563   -0.8956 H         1 <0>         0.0977
     43 H9         -3.9567   -2.9189   -2.5473 H         1 <0>         0.0791
     44 H10        -5.3748   -1.8438   -2.3029 H         1 <0>         0.0789
     45 H11        -1.8279    2.6019   -1.2444 H         1 <0>         0.1389
     46 H12         0.4526    0.5280   -1.3406 H         1 <0>         0.0896
     47 H13         0.8229    2.2345   -0.9197 H         1 <0>         0.1165
     48 H14        -0.9366    2.0820    1.2465 H         1 <0>         0.1046
     49 H15        -1.3068    0.3754    0.8256 H         1 <0>         0.1036
     50 H16        -3.3870   -1.1000   -6.8854 H         1 <0>         0.1416
     51 H17        -2.8488    1.8425   -7.6342 H         1 <0>         0.1007
     52 H18        -3.0620    0.6210   -8.9338 H         1 <0>         0.1129
     53 H19        -5.6036    0.0100   -7.9427 H         1 <0>         0.1118
     54 H20        -5.3905    1.2316   -6.6431 H         1 <0>         0.1016
     55 H21         0.3137    5.8536   -7.5926 H         1 <0>         0.0966
     56 H22        -0.5938    4.4226   -6.9962 H         1 <0>         0.0687
     57 H23        -2.7094    4.7825   -5.6461 H         1 <0>         0.0577
     58 H24        -1.8570    5.9466   -4.5761 H         1 <0>         0.0724
     59 H25        -4.2464    8.7615   -5.1458 H         1 <0>         0.0663
     60 H26        -2.7511    8.2614   -4.2851 H         1 <0>         0.0670
     61 H27        -0.6378    7.8903   -5.5650 H         1 <0>         0.0746
     62 H28        -0.6135    8.1236   -7.3459 H         1 <0>         0.0705
     63 H29        -4.2127    9.0860   -7.6229 H         1 <0>         0.0750
     64 H30        -2.6933    8.8192   -8.5431 H         1 <0>         0.0759
     65 H31        -4.7891    5.4780   -6.8434 H         1 <0>         0.0742
     66 H32        -5.4320    7.1422   -6.6341 H         1 <0>         0.0754
     67 H33        -1.7991    6.5043   -8.8341 H         1 <0>         0.0796
     68 H34        -2.6758    5.1070   -8.1232 H         1 <0>         0.0751
@<TRIPOS>BOND
     1    1    2 1
     2    1   37 1
     3    1   38 1
     4    1   39 1
     5    2    3 2
     6    2   23 1
     7    3    4 1
     8    4    5 am
     9    4   40 1
    10    5    6 2
    11    5    7 1
    12    7   12 ar
    13    7    8 ar
    14    8    9 ar
    15    8   41 1
    16    9   10 ar
    17    9   20 1
    18   10   11 ar
    19   11   15 1
    20   11   12 ar
    21   12   13 1
    22   13   14 2
    23   13   17 1
    24   14   15 1
    25   15   16 1
    26   16   42 1
    27   16   43 1
    28   16   44 1
    29   17   19 1
    30   17   18 1
    31   17   45 1
    32   18   19 1
    33   18   46 1
    34   18   47 1
    35   19   48 1
    36   19   49 1
    37   20   22 1
    38   20   21 1
    39   20   50 1
    40   21   22 1
    41   21   51 1
    42   21   52 1
    43   22   53 1
    44   22   54 1
    45   23   24 1
    46   23   55 1
    47   23   56 1
    48   24   31 1
    49   24   35 1
    50   24   25 1
    51   25   26 1
    52   25   57 1
    53   25   58 1
    54   26   27 1
    55   26   34 1
    56   26   28 1
    57   28   29 1
    58   28   59 1
    59   28   60 1
    60   29   30 1
    61   29   31 1
    62   29   32 1
    63   31   61 1
    64   31   62 1
    65   32   33 1
    66   32   63 1
    67   32   64 1
    68   33   34 1
    69   33   35 1
    70   33   36 1
    71   34   65 1
    72   34   66 1
    73   35   67 1
    74   35   68 1
@<TRIPOS>MOLECULE
ZINC37602346
   69    73     0     0     0
SMALL
USER_CHARGES

@<TRIPOS>ATOM
      1 C1         -1.3022   -0.9329    2.8662 C.3       1 <0>        -0.1613
      2 C2         -1.6716   -2.4173    2.8960 C.3       1 <0>         0.1345
      3 C3         -1.4254   -2.9761    4.2988 C.3       1 <0>        -0.1641
      4 N1         -3.0860   -2.5756    2.5485 N.am      1 <0>        -0.7092
      5 C4         -3.5250   -3.7364    2.0228 C.2       1 <0>         0.5960
      6 O1         -2.7469   -4.6525    1.8369 O.2       1 <0>        -0.5338
      7 C5         -4.9468   -3.8955    1.6736 C.2       1 <0>        -0.0124
      8 C6         -5.4369   -5.0584    1.1424 C.2       1 <0>        -0.2246
      9 S1         -7.0668   -4.7051    0.9406 S.3       1 <0>         0.3104
     10 C7         -7.0773   -3.1304    1.5222 C.2       1 <0>        -0.0177
     11 N2         -5.8356   -2.9150    1.8617 N.2       1 <0>        -0.4507
     12 C8         -8.2481   -2.1879    1.6325 C.3       1 <0>         0.1567
     13 O2         -8.3651   -1.4305    0.4264 O.3       1 <0>        -0.3064
     14 C9         -9.3784   -0.5272    0.3610 C.ar      1 <0>         0.1312
     15 C10       -10.2407   -0.3664    1.4362 C.ar      1 <0>        -0.2004
     16 C11       -11.2682    0.5485    1.3583 C.ar      1 <0>        -0.0773
     17 C12       -11.4489    1.3161    0.2133 C.ar      1 <0>        -0.1031
     18 C13       -10.5877    1.1639   -0.8506 C.ar      1 <0>        -0.0469
     19 C14        -9.5531    0.2423   -0.7767 C.ar      1 <0>        -0.1308
     20 C15       -10.7088    1.9842   -2.1104 C.3       1 <0>         0.2278
     21 H1         -9.8905    2.7030   -2.1553 H         1 <0>         0.0920
     22 N3        -11.9886    2.7009   -2.1120 N.am      1 <0>        -0.6103
     23 C16       -12.3932    3.3643   -0.8615 C.3       1 <0>         0.1000
     24 C17       -12.6033    2.2834    0.1975 C.3       1 <0>        -0.0943
     25 C18       -12.7627    2.7505   -3.2141 C.2       1 <0>         0.5198
     26 O3        -12.4329    2.1493   -4.2145 O.2       1 <0>        -0.5017
     27 C19       -14.0382    3.5530   -3.2035 C.3       1 <0>        -0.1118
     28 C20       -15.0187    2.9732   -2.1632 C.3       1 <0>        -0.1163
     29 C21       -16.4103    3.1273   -2.8255 C.3       1 <0>        -0.1248
     30 C22       -16.1174    2.8123   -4.3135 C.3       1 <0>        -0.1240
     31 C23       -14.7368    3.4507   -4.5707 C.3       1 <0>        -0.1184
     32 C24       -10.6431    1.0741   -3.3097 C.ar      1 <0>        -0.0472
     33 C25       -11.5238    0.0146   -3.4223 C.ar      1 <0>        -0.0759
     34 C26       -11.4636   -0.8203   -4.5224 C.ar      1 <0>        -0.1160
     35 C27       -10.5230   -0.5954   -5.5101 C.ar      1 <0>        -0.1196
     36 C28        -9.6429    0.4646   -5.3979 C.ar      1 <0>        -0.1154
     37 C29        -9.7060    1.3021   -4.2999 C.ar      1 <0>        -0.1108
     38 H2         -0.2498   -0.8152    3.1247 H         1 <0>         0.0752
     39 H3         -1.4775   -0.5348    1.8667 H         1 <0>         0.0625
     40 H4         -1.9159   -0.3912    3.5859 H         1 <0>         0.0620
     41 H5         -1.0579   -2.9590    2.1762 H         1 <0>         0.0898
     42 H6         -1.6887   -4.0336    4.3201 H         1 <0>         0.0603
     43 H7         -0.3731   -2.8583    4.5573 H         1 <0>         0.0682
     44 H8         -2.0392   -2.4344    5.0186 H         1 <0>         0.0572
     45 H9         -3.7065   -1.8450    2.6968 H         1 <0>         0.4090
     46 H10        -4.9090   -5.9718    0.9113 H         1 <0>         0.2113
     47 H11        -9.1617   -2.7606    1.7920 H         1 <0>         0.0926
     48 H12        -8.0920   -1.5114    2.4727 H         1 <0>         0.0975
     49 H13       -10.1072   -0.9565    2.3308 H         1 <0>         0.1304
     50 H14       -11.9402    0.6703    2.1950 H         1 <0>         0.1280
     51 H15        -8.8815    0.1218   -1.6139 H         1 <0>         0.1329
     52 H16       -11.6103    4.0502   -0.5379 H         1 <0>         0.0772
     53 H17       -13.3224    3.9120   -1.0187 H         1 <0>         0.1006
     54 H18       -13.5227    1.7406   -0.0218 H         1 <0>         0.0808
     55 H19       -12.6905    2.7535    1.1771 H         1 <0>         0.0879
     56 H20       -13.8210    4.5958   -2.9723 H         1 <0>         0.0965
     57 H21       -14.7993    1.9219   -1.9766 H         1 <0>         0.0700
     58 H22       -14.9724    3.5440   -1.2357 H         1 <0>         0.0751
     59 H23       -17.1173    2.4090   -2.4105 H         1 <0>         0.0688
     60 H24       -16.7814    4.1459   -2.7122 H         1 <0>         0.0700
     61 H25       -16.0754    1.7350   -4.4742 H         1 <0>         0.0656
     62 H26       -16.8728    3.2655   -4.9553 H         1 <0>         0.0670
     63 H27       -14.8594    4.4439   -5.0027 H         1 <0>         0.0666
     64 H28       -14.1532    2.8206   -5.2419 H         1 <0>         0.0902
     65 H29       -12.2587   -0.1612   -2.6506 H         1 <0>         0.1049
     66 H30       -12.1512   -1.6485   -4.6100 H         1 <0>         0.1137
     67 H31       -10.4756   -1.2481   -6.3693 H         1 <0>         0.1154
     68 H32        -8.9079    0.6402   -6.1695 H         1 <0>         0.1166
     69 H33        -9.0208    2.1325   -4.2141 H         1 <0>         0.1134
@<TRIPOS>BOND
     1    1    2 1
     2    1   38 1
     3    1   39 1
     4    1   40 1
     5    2    3 1
     6    2    4 1
     7    2   41 1
     8    3   42 1
     9    3   43 1
    10    3   44 1
    11    4    5 am
    12    4   45 1
    13    5    6 2
    14    5    7 1
    15    7   11 1
    16    7    8 2
    17    8    9 1
    18    8   46 1
    19    9   10 1
    20   10   11 2
    21   10   12 1
    22   12   13 1
    23   12   47 1
    24   12   48 1
    25   13   14 1
    26   14   19 ar
    27   14   15 ar
    28   15   16 ar
    29   15   49 1
    30   16   17 ar
    31   16   50 1
    32   17   24 1
    33   17   18 ar
    34   18   19 ar
    35   18   20 1
    36   19   51 1
    37   20   21 1
    38   20   22 1
    39   20   32 1
    40   22   23 1
    41   22   25 am
    42   23   24 1
    43   23   52 1
    44   23   53 1
    45   24   54 1
    46   24   55 1
    47   25   26 2
    48   25   27 1
    49   27   31 1
    50   27   28 1
    51   27   56 1
    52   28   29 1
    53   28   57 1
    54   28   58 1
    55   29   30 1
    56   29   59 1
    57   29   60 1
    58   30   31 1
    59   30   61 1
    60   30   62 1
    61   31   63 1
    62   31   64 1
    63   32   37 ar
    64   32   33 ar
    65   33   34 ar
    66   33   65 1
    67   34   35 ar
    68   34   66 1
    69   35   36 ar
    70   35   67 1
    71   36   37 ar
    72   36   68 1
    73   37   69 1
@<TRIPOS>MOLECULE
ZINC49503900
   65    69     0     0     0
SMALL
USER_CHARGES

@<TRIPOS>ATOM
      1 C1         -0.5003    0.4984   -4.4478 C.3       1 <0>        -0.1138
      2 C2         -0.3966   -0.8130   -3.7126 C.ar      1 <0>        -0.1103
      3 C3         -0.2978   -0.8248   -2.3331 C.ar      1 <0>        -0.0892
      4 C4         -0.2026   -2.0248   -1.6565 C.ar      1 <0>        -0.1574
      5 C5         -0.2067   -3.2207   -2.3627 C.ar      1 <0>         0.1636
      6 C6         -0.3066   -3.2055   -3.7475 C.ar      1 <0>        -0.1498
      7 C7         -0.4063   -2.0020   -4.4181 C.ar      1 <0>        -0.0598
      8 C8         -0.5205   -1.9847   -5.9207 C.3       1 <0>        -0.1165
      9 N1         -0.1100   -4.4384   -1.6801 N.am      1 <0>        -0.5516
     10 C9         -0.2119   -5.7559   -2.3185 C.3       1 <0>         0.1087
     11 C10         0.3771   -6.7550   -1.2980 C.3       1 <0>        -0.1244
     12 H1         -0.1683   -7.6985   -1.3164 H         1 <0>         0.1361
     13 C11         0.1507   -6.0109    0.0384 C.3       1 <0>        -0.1436
     14 C12         0.0940   -4.5516   -0.3563 C.2       1 <0>         0.5151
     15 O1          0.2126   -3.6195    0.4105 O.2       1 <0>        -0.5041
     16 C13         1.8460   -6.9794   -1.5491 C.2       1 <0>         0.5173
     17 O2          2.4006   -6.4022   -2.4604 O.2       1 <0>        -0.5020
     18 N2          2.5434   -7.8215   -0.7612 N.am      1 <0>        -0.6688
     19 C14         3.9304   -7.9442   -0.9212 C.ar      1 <0>         0.1215
     20 C15         4.6891   -6.8361   -1.2747 C.ar      1 <0>        -0.0800
     21 C16         6.0540   -6.9609   -1.4327 C.ar      1 <0>        -0.1554
     22 C17         6.6696   -8.1926   -1.2380 C.ar      1 <0>         0.1692
     23 C18         5.9149   -9.2993   -0.8819 C.ar      1 <0>        -0.0901
     24 C19         4.5456   -9.1709   -0.7209 C.ar      1 <0>        -0.1111
     25 C20         6.5511  -10.6450   -0.6530 C.3       1 <0>        -0.0765
     26 C21         7.9146  -10.7167   -1.3398 C.3       1 <0>        -0.1319
     27 C22         8.7459   -9.4972   -0.9207 C.3       1 <0>         0.1022
     28 N3          8.0570   -8.2950   -1.4093 N.pl3     1 <0>        -0.9352
     29 S1          8.9054   -7.0815   -2.1507 S.o2      1 <0>         2.6835
     30 O3         10.1414   -7.6457   -2.5670 O.2       1 <0>        -0.9430
     31 O4          8.0094   -6.4557   -3.0589 O.2       1 <0>        -0.9379
     32 C23         9.2888   -5.8843   -0.9160 C.ar      1 <0>        -0.6781
     33 C24         8.4118   -4.8459   -0.6642 C.ar      1 <0>        -0.0228
     34 C25         8.7125   -3.9067    0.3044 C.ar      1 <0>        -0.1360
     35 C26         9.8901   -4.0061    1.0216 C.ar      1 <0>        -0.0592
     36 C27        10.7667   -5.0450    0.7704 C.ar      1 <0>        -0.1381
     37 C28        10.4639   -5.9867   -0.1953 C.ar      1 <0>        -0.0193
     38 H2         -1.5494    0.7770   -4.5476 H         1 <0>         0.0687
     39 H3          0.0291    1.2707   -3.8897 H         1 <0>         0.0652
     40 H4         -0.0558    0.3962   -5.4377 H         1 <0>         0.0677
     41 H5         -0.2946    0.1055   -1.7846 H         1 <0>         0.1260
     42 H6         -0.1247   -2.0333   -0.5793 H         1 <0>         0.1531
     43 H7         -0.3100   -4.1338   -4.2995 H         1 <0>         0.1254
     44 H8          0.4760   -1.9429   -6.3603 H         1 <0>         0.0726
     45 H9         -1.0284   -2.8886   -6.2569 H         1 <0>         0.0663
     46 H10        -1.0917   -1.1100   -6.2316 H         1 <0>         0.0707
     47 H11        -1.2552   -5.9964   -2.5227 H         1 <0>         0.0945
     48 H12         0.3677   -5.7737   -3.2414 H         1 <0>         0.1067
     49 H13        -0.7885   -6.3235    0.4947 H         1 <0>         0.1267
     50 H14         0.9838   -6.1870    0.7190 H         1 <0>         0.1119
     51 H15         2.0855   -8.3428   -0.0833 H         1 <0>         0.4124
     52 H16         4.2119   -5.8791   -1.4259 H         1 <0>         0.1378
     53 H17         6.6455   -6.1004   -1.7086 H         1 <0>         0.1432
     54 H18         3.9538  -10.0304   -0.4426 H         1 <0>         0.1325
     55 H19         6.6788  -10.8051    0.4176 H         1 <0>         0.0814
     56 H20         5.9032  -11.4226   -1.0576 H         1 <0>         0.0834
     57 H21         8.4279  -11.6297   -1.0381 H         1 <0>         0.0899
     58 H22         7.7793  -10.7121   -2.4214 H         1 <0>         0.0760
     59 H23         8.8261   -9.4608    0.1657 H         1 <0>         0.0813
     60 H24         9.7402   -9.5584   -1.3632 H         1 <0>         0.1070
     61 H25         7.4918   -4.7682   -1.2245 H         1 <0>         0.1406
     62 H26         8.0276   -3.0950    0.5007 H         1 <0>         0.1362
     63 H27        10.1254   -3.2719    1.7779 H         1 <0>         0.1342
     64 H28        11.6869   -5.1225    1.3305 H         1 <0>         0.1361
     65 H29        11.1470   -6.8005   -0.3889 H         1 <0>         0.1409
@<TRIPOS>BOND
     1    1    2 1
     2    1   38 1
     3    1   39 1
     4    1   40 1
     5    2    7 ar
     6    2    3 ar
     7    3    4 ar
     8    3   41 1
     9    4    5 ar
    10    4   42 1
    11    5    6 ar
    12    5    9 1
    13    6    7 ar
    14    6   43 1
    15    7    8 1
    16    8   44 1
    17    8   45 1
    18    8   46 1
    19    9   14 am
    20    9   10 1
    21   10   11 1
    22   10   47 1
    23   10   48 1
    24   11   12 1
    25   11   13 1
    26   11   16 1
    27   13   14 1
    28   13   49 1
    29   13   50 1
    30   14   15 2
    31   16   17 2
    32   16   18 am
    33   18   19 1
    34   18   51 1
    35   19   24 ar
    36   19   20 ar
    37   20   21 ar
    38   20   52 1
    39   21   22 ar
    40   21   53 1
    41   22   28 1
    42   22   23 ar
    43   23   24 ar
    44   23   25 1
    45   24   54 1
    46   25   26 1
    47   25   55 1
    48   25   56 1
    49   26   27 1
    50   26   57 1
    51   26   58 1
    52   27   28 1
    53   27   59 1
    54   27   60 1
    55   28   29 1
    56   29   30 2
    57   29   31 2
    58   29   32 1
    59   32   37 ar
    60   32   33 ar
    61   33   34 ar
    62   33   61 1
    63   34   35 ar
    64   34   62 1
    65   35   36 ar
    66   35   63 1
    67   36   37 ar
    68   36   64 1
    69   37   65 1
@<TRIPOS>MOLECULE
ZINC09391510
   69    72     0     0     0
SMALL
USER_CHARGES
ethyl 3,3,5,5-tetramethyl-8-(4-pyrrolidin-1-ylsulfonylbenzoyl)amino-7-thia-4-azabicyclo[4.3.0]nona-8,10-diene-9-carboxylate
@<TRIPOS>ATOM
      1 C1          1.8604   -4.7799    2.4341 C.3       1 <0>        -0.1547
      2 C2          1.7719   -4.1840    1.0277 C.3       1 <0>         0.0577
      3 O1          1.5937   -2.7460    1.1216 O.3       1 <0>        -0.3501
      4 C3          1.4969   -2.0639   -0.0380 C.2       1 <0>         0.5204
      5 O2          1.5599   -2.6558   -1.0989 O.2       1 <0>        -0.4802
      6 C4          1.3162   -0.6109   -0.0199 C.2       1 <0>        -0.2098
      7 C5          0.0021   -0.0041    0.0020 C.2       1 <0>        -0.0312
      8 C6         -0.0163    1.3490    0.0095 C.2       1 <0>        -0.2896
      9 S1          1.6893    1.8188   -0.0043 S.3       1 <0>         0.3451
     10 C7          2.4138    0.2449   -0.0254 C.2       1 <0>         0.1044
     11 N1          3.7587   -0.0843   -0.0443 N.am      1 <0>        -0.6150
     12 C8          4.6908    0.8891   -0.0468 C.2       1 <0>         0.5630
     13 O3          4.3509    2.0561   -0.0325 O.2       1 <0>        -0.4806
     14 C9          6.1262    0.5377   -0.0670 C.ar      1 <0>        -0.0929
     15 C10         6.5200   -0.8016   -0.0777 C.ar      1 <0>        -0.1036
     16 C11         7.8614   -1.1226   -0.1023 C.ar      1 <0>        -0.0220
     17 C12         8.8158   -0.1208   -0.1048 C.ar      1 <0>        -0.6451
     18 C13         8.4324    1.2086   -0.0885 C.ar      1 <0>        -0.0218
     19 C14         7.0943    1.5435   -0.0696 C.ar      1 <0>        -0.0670
     20 S2         10.5271   -0.5398   -0.1283 S.o2      1 <0>         2.7041
     21 O4         10.6189   -1.8410   -0.6919 O.2       1 <0>        -0.9416
     22 O5         11.2114    0.5782   -0.6771 O.2       1 <0>        -0.9399
     23 N2         11.0209   -0.6703    1.4469 N.pl3     1 <0>        -1.0102
     24 C15        11.5665    0.4211    2.2671 C.3       1 <0>         0.1159
     25 C16        11.9081   -0.1717    3.6503 C.3       1 <0>        -0.1296
     26 C17        12.0715   -1.6846    3.3469 C.3       1 <0>        -0.1303
     27 C18        10.9921   -1.9016    2.2572 C.3       1 <0>         0.1115
     28 C19        -1.2287    2.2217    0.0181 C.3       1 <0>         0.1687
     29 C20        -2.3299    0.1168    0.7922 C.3       1 <0>         0.0650
     30 C21        -1.3260   -0.7486    0.0219 C.3       1 <0>        -0.0689
     31 C22        -3.7044   -0.5742    0.7146 C.3       1 <0>        -0.1820
     32 C23        -1.9175    0.1778    2.2659 C.3       1 <0>        -0.1695
     33 C24        -1.0780    3.2901    1.1103 C.3       1 <0>        -0.1774
     34 C25        -1.3181    2.9411   -1.3411 C.3       1 <0>        -0.1795
     35 H1          2.7082   -4.3424    2.9613 H         1 <0>         0.0688
     36 H2          0.9420   -4.5624    2.9793 H         1 <0>         0.0680
     37 H3          1.9942   -5.8594    2.3635 H         1 <0>         0.0875
     38 H4          0.9241   -4.6215    0.5004 H         1 <0>         0.0753
     39 H5          2.6903   -4.4015    0.4824 H         1 <0>         0.0749
     40 H6          4.0299   -1.0156   -0.0557 H         1 <0>         0.4262
     41 H7          5.7762   -1.5846   -0.0708 H         1 <0>         0.1340
     42 H8          8.1674   -2.1583   -0.1151 H         1 <0>         0.1540
     43 H9          9.1823    1.9857   -0.0910 H         1 <0>         0.1563
     44 H10         6.7963    2.5815   -0.0573 H         1 <0>         0.1539
     45 H11        12.4668    0.8210    1.8005 H         1 <0>         0.0787
     46 H12        10.8222    1.2097    2.3775 H         1 <0>         0.0672
     47 H13        11.0946   -0.0058    4.3566 H         1 <0>         0.0770
     48 H14        12.8392    0.2480    4.0310 H         1 <0>         0.0861
     49 H15        11.8601   -2.2855    4.2314 H         1 <0>         0.0869
     50 H16        13.0671   -1.8999    2.9590 H         1 <0>         0.0808
     51 H17        10.0116   -2.0316    2.7151 H         1 <0>         0.0684
     52 H18        11.2422   -2.7662    1.6423 H         1 <0>         0.0875
     53 H19        -1.6801   -0.9033   -0.9966 H         1 <0>         0.1092
     54 H20        -1.2146   -1.7076    0.5258 H         1 <0>         0.1191
     55 H21        -3.6384   -1.5658    1.1623 H         1 <0>         0.1073
     56 H22        -4.4409    0.0202    1.2553 H         1 <0>         0.0860
     57 H23        -4.0066   -0.6659   -0.3286 H         1 <0>         0.0834
     58 H24        -0.9217    0.6138    2.3468 H         1 <0>         0.0833
     59 H25        -2.6291    0.7925    2.8172 H         1 <0>         0.0825
     60 H26        -1.9081   -0.8293    2.6826 H         1 <0>         0.1050
     61 H27        -0.1945    3.8953    0.9071 H         1 <0>         0.1066
     62 H28        -1.9616    3.9283    1.1187 H         1 <0>         0.0919
     63 H29        -0.9708    2.8051    2.0806 H         1 <0>         0.0876
     64 H30        -1.3956    2.2024   -2.1388 H         1 <0>         0.0862
     65 H31        -2.1982    3.5840   -1.3547 H         1 <0>         0.0906
     66 H32        -0.4239    3.5460   -1.4916 H         1 <0>         0.1076
     67 N3         -2.5044    1.4742    0.2139 N.4       1 <0>        -0.5089
     68 H33        -2.9657    1.3791   -0.6984 H         1 <0>         0.4323
     69 H34        -3.1036    2.0189    0.8452 H         1 <0>         0.4354
@<TRIPOS>BOND
     1    1    2 1
     2    1   35 1
     3    1   36 1
     4    1   37 1
     5    2    3 1
     6    2   38 1
     7    2   39 1
     8    3    4 1
     9    4    5 2
    10    4    6 1
    11    6   10 2
    12    6    7 1
    13    7   30 1
    14    7    8 2
    15    8    9 1
    16    8   28 1
    17    9   10 1
    18   10   11 1
    19   11   12 am
    20   11   40 1
    21   12   13 2
    22   12   14 1
    23   14   19 ar
    24   14   15 ar
    25   15   16 ar
    26   15   41 1
    27   16   17 ar
    28   16   42 1
    29   17   18 ar
    30   17   20 1
    31   18   19 ar
    32   18   43 1
    33   19   44 1
    34   20   21 2
    35   20   22 2
    36   20   23 1
    37   23   27 1
    38   23   24 1
    39   24   25 1
    40   24   45 1
    41   24   46 1
    42   25   26 1
    43   25   47 1
    44   25   48 1
    45   26   27 1
    46   26   49 1
    47   26   50 1
    48   27   51 1
    49   27   52 1
    50   28   33 1
    51   28   34 1
    52   28   67 1
    53   29   30 1
    54   29   31 1
    55   29   32 1
    56   29   67 1
    57   30   53 1
    58   30   54 1
    59   31   55 1
    60   31   56 1
    61   31   57 1
    62   32   58 1
    63   32   59 1
    64   32   60 1
    65   33   61 1
    66   33   62 1
    67   33   63 1
    68   34   64 1
    69   34   65 1
    70   34   66 1
    71   67   68 1
    72   67   69 1
@<TRIPOS>MOLECULE
ZINC35842959
   61    64     0     0     0
SMALL
USER_CHARGES

@<TRIPOS>ATOM
      1 C1          0.0761    1.5098    0.0511 C.3       1 <0>        -0.1309
      2 C2          0.0858    0.0029    0.0377 C.ar      1 <0>        -0.0186
      3 C3          0.0882   -0.6776   -1.1655 C.ar      1 <0>        -0.1399
      4 C4          0.0971   -2.0599   -1.1777 C.ar      1 <0>        -0.0175
      5 C5          0.1042   -2.7616    0.0132 C.ar      1 <0>        -0.6903
      6 C6          0.1027   -2.0811    1.2165 C.ar      1 <0>        -0.0170
      7 C7          0.0981   -0.6988    1.2287 C.ar      1 <0>        -0.1398
      8 S1          0.1144   -4.5235   -0.0024 S.o2      1 <0>         2.6824
      9 O1         -0.4309   -4.9438    1.2407 O.2       1 <0>        -0.9527
     10 O2         -0.4373   -4.9218   -1.2499 O.2       1 <0>        -0.9505
     11 N1          1.6991   -5.0039   -0.0107 N.pl3     1 <0>        -0.9970
     12 C8          2.3620   -5.1885   -1.2695 C.3       1 <0>         0.1246
     13 C9          2.0804   -6.6227   -1.7480 C.3       1 <0>        -0.1799
     14 C10         2.9239   -7.6074   -1.0523 C.3       1 <0>         0.1045
     15 N2          2.7043   -7.5313    0.4115 N.pl3     1 <0>        -0.5751
     16 C11         3.3056   -6.4739    1.1750 C.3       1 <0>         0.0981
     17 C12         2.3918   -5.2244    1.2884 C.3       1 <0>         0.0867
     18 C13         1.9139   -8.4854    1.0468 C.ar      1 <0>         0.4319
     19 C14         1.7953   -8.4679    2.4327 C.ar      1 <0>        -0.1715
     20 C15         1.0080   -9.4199    3.0537 C.ar      1 <0>         0.0348
     21 C16         0.3601  -10.3658    2.2608 C.ar      1 <0>         0.1345
     22 C17         0.5247  -10.3218    0.8852 C.ar      1 <0>         0.1010
     23 N3          1.2797   -9.3955    0.3251 N.ar      1 <0>        -0.4875
     24 N4         -0.4481  -11.3500    2.8476 N.am      1 <0>        -0.6747
     25 C18        -1.1688  -11.0614    3.9493 C.2       1 <0>         0.7082
     26 O3         -1.1961   -9.9235    4.3772 O.2       1 <0>        -0.5449
     27 N5         -1.8593  -12.0340    4.5768 N.am      1 <0>        -0.6674
     28 C19        -2.5300  -11.7557    5.7729 C.ar      1 <0>         0.1738
     29 C20        -2.6017  -12.7193    6.7708 C.ar      1 <0>        -0.1481
     30 C21        -3.2636  -12.4427    7.9509 C.ar      1 <0>        -0.0677
     31 C22        -3.8554  -11.2076    8.1409 C.ar      1 <0>        -0.1591
     32 C23        -3.7863  -10.2440    7.1486 C.ar      1 <0>         0.1210
     33 C24        -3.1199  -10.5142    5.9666 C.ar      1 <0>        -0.1562
     34 F1         -4.3658   -9.0382    7.3368 F         1 <0>        -0.1316
     35 H1          1.1013    1.8798    0.0476 H         1 <0>         0.0837
     36 H2         -0.4459    1.8776   -0.8323 H         1 <0>         0.0768
     37 H3         -0.4343    1.8619    0.9475 H         1 <0>         0.0768
     38 H4          0.0826   -0.1294   -2.0960 H         1 <0>         0.1367
     39 H5          0.0982   -2.5916   -2.1178 H         1 <0>         0.1386
     40 H6          0.1079   -2.6293    2.1469 H         1 <0>         0.1390
     41 H7          0.1008   -0.1670    2.1687 H         1 <0>         0.1368
     42 H8          1.9762   -4.4747   -1.9974 H         1 <0>         0.0929
     43 H9          3.4354   -5.0455   -1.1453 H         1 <0>         0.0945
     44 H10         1.0326   -6.8593   -1.5633 H         1 <0>         0.0778
     45 H11         2.2732   -6.6839   -2.8191 H         1 <0>         0.1101
     46 H12         2.6735   -8.6086   -1.4030 H         1 <0>         0.0818
     47 H13         3.9720   -7.4031   -1.2709 H         1 <0>         0.1133
     48 H14         3.5245   -6.8430    2.1770 H         1 <0>         0.1080
     49 H15         4.2405   -6.1814    0.6970 H         1 <0>         0.1113
     50 H16         2.9950   -4.3497    1.5317 H         1 <0>         0.0999
     51 H17         1.6517   -5.3852    2.0723 H         1 <0>         0.1061
     52 H18         2.3120   -7.7204    3.0163 H         1 <0>         0.1860
     53 H19         0.8979   -9.4306    4.1280 H         1 <0>         0.1836
     54 H20         0.0262  -11.0515    0.2643 H         1 <0>         0.2075
     55 H21        -0.4884  -12.2386    2.4607 H         1 <0>         0.4226
     56 H22        -1.8914  -12.9269    4.1992 H         1 <0>         0.4170
     57 H23        -2.1402  -13.6846    6.6237 H         1 <0>         0.1359
     58 H24        -3.3194  -13.1924    8.7263 H         1 <0>         0.1432
     59 H25        -4.3727  -10.9941    9.0646 H         1 <0>         0.1419
     60 H26        -3.0619   -9.7615    5.1943 H         1 <0>         0.1525
     61 H27         1.3755   -9.3840   -0.6401 H         1 <0>         0.4424
@<TRIPOS>BOND
     1    1    2 1
     2    1   35 1
     3    1   36 1
     4    1   37 1
     5    2    7 ar
     6    2    3 ar
     7    3    4 ar
     8    3   38 1
     9    4    5 ar
    10    4   39 1
    11    5    6 ar
    12    5    8 1
    13    6    7 ar
    14    6   40 1
    15    7   41 1
    16    8    9 2
    17    8   10 2
    18    8   11 1
    19   11   17 1
    20   11   12 1
    21   12   13 1
    22   12   42 1
    23   12   43 1
    24   13   14 1
    25   13   44 1
    26   13   45 1
    27   14   15 1
    28   14   46 1
    29   14   47 1
    30   15   16 1
    31   15   18 1
    32   16   17 1
    33   16   48 1
    34   16   49 1
    35   17   50 1
    36   17   51 1
    37   18   23 ar
    38   18   19 ar
    39   19   20 ar
    40   19   52 1
    41   20   21 ar
    42   20   53 1
    43   21   22 ar
    44   21   24 1
    45   22   23 ar
    46   22   54 1
    47   23   61 1
    48   24   25 am
    49   24   55 1
    50   25   26 2
    51   25   27 am
    52   27   28 1
    53   27   56 1
    54   28   33 ar
    55   28   29 ar
    56   29   30 ar
    57   29   57 1
    58   30   31 ar
    59   30   58 1
    60   31   32 ar
    61   31   59 1
    62   32   33 ar
    63   32   34 1
    64   33   60 1
@<TRIPOS>MOLECULE
ZINC39639424
   75    78     0     0     0
SMALL
USER_CHARGES

@<TRIPOS>ATOM
      1 C1          4.0893   -4.7310   -6.2648 C.3       1 <0>        -0.1225
      2 C2          3.3213   -4.8175   -4.9711 C.ar      1 <0>        -0.0761
      3 C3          2.0344   -5.3223   -4.9637 C.ar      1 <0>        -0.1139
      4 C4          1.3299   -5.4018   -3.7770 C.ar      1 <0>        -0.1023
      5 C5          1.9125   -4.9768   -2.5976 C.ar      1 <0>        -0.1065
      6 C6          3.1997   -4.4729   -2.6049 C.ar      1 <0>        -0.1133
      7 C7          3.9057   -4.3974   -3.7909 C.ar      1 <0>        -0.1167
      8 C8          1.1441   -5.0625   -1.3041 C.3       1 <0>         0.1864
      9 H1          0.3314   -5.7810   -1.4111 H         1 <0>         0.0977
     10 C9          0.5673   -3.6874   -0.9615 C.3       1 <0>        -0.1614
     11 N1          2.0417   -5.4968   -0.2307 N.am      1 <0>        -0.7220
     12 C10         1.5420   -6.1200    0.8548 C.2       1 <0>         0.5174
     13 O1          0.3492   -6.3214    0.9430 O.2       1 <0>        -0.5182
     14 C11         2.4653   -6.5668    1.9588 C.3       1 <0>        -0.1159
     15 H2          3.3493   -5.9301    1.9942 H         1 <0>         0.1185
     16 C12         1.7302   -6.5425    3.3177 C.3       1 <0>         0.1117
     17 N2          1.2419   -7.9292    3.5039 N.am      1 <0>        -0.6163
     18 C13         2.3465   -8.7799    2.9997 C.3       1 <0>         0.1095
     19 C14         2.8714   -8.0361    1.7556 C.3       1 <0>        -0.0722
     20 C15         4.3898   -8.1576    1.6690 C.3       1 <0>        -0.1339
     21 C16         4.7664   -9.6187    1.4084 C.3       1 <0>        -0.0102
     22 N3          4.1472  -10.0699    0.1564 N.4       1 <0>        -0.5046
     23 C17         2.6849  -10.0380    0.2812 C.3       1 <0>        -0.0091
     24 C18         2.2202   -8.5946    0.4940 C.3       1 <0>        -0.1471
     25 C19         0.0606   -8.3273    4.0163 C.2       1 <0>         0.5538
     26 O2         -0.1946   -9.5096    4.1046 O.2       1 <0>        -0.5073
     27 C20        -0.9432   -7.3031    4.4797 C.3       1 <0>         0.0728
     28 H3         -1.1547   -6.6081    3.6670 H         1 <0>         0.1074
     29 C21        -0.3732   -6.5340    5.6732 C.3       1 <0>        -0.1091
     30 C22        -1.3922   -5.4942    6.1436 C.3       1 <0>        -0.1551
     31 C23        -0.0763   -7.5095    6.8138 C.3       1 <0>        -0.1470
     32 O3         -2.1500   -7.9615    4.8697 O.3       1 <0>        -0.2806
     33 C24        -3.3146   -7.2965    4.6492 C.ar      1 <0>         0.1270
     34 C25        -3.3034   -6.0751    3.9914 C.ar      1 <0>        -0.2087
     35 C26        -4.4886   -5.4014    3.7681 C.ar      1 <0>        -0.0791
     36 C27        -5.6852   -5.9432    4.1998 C.ar      1 <0>        -0.1538
     37 C28        -5.6989   -7.1602    4.8560 C.ar      1 <0>        -0.0776
     38 C29        -4.5171   -7.8408    5.0763 C.ar      1 <0>        -0.1483
     39 H4          4.6423   -5.6571   -6.4218 H         1 <0>         0.0730
     40 H5          3.3942   -4.5784   -7.0905 H         1 <0>         0.0710
     41 H6          4.7869   -3.8948   -6.2179 H         1 <0>         0.0703
     42 H7          1.5793   -5.6543   -5.8851 H         1 <0>         0.1269
     43 H8          0.3243   -5.7955   -3.7714 H         1 <0>         0.1250
     44 H9          3.6547   -4.1406   -1.6835 H         1 <0>         0.1183
     45 H10         4.9127   -4.0072   -3.7960 H         1 <0>         0.1251
     46 H11        -0.1005   -3.3643   -1.7600 H         1 <0>         0.0723
     47 H12         0.0115   -3.7494   -0.0258 H         1 <0>         0.0658
     48 H13         1.3799   -2.9689   -0.8544 H         1 <0>         0.0614
     49 H14         2.9956   -5.3357   -0.3013 H         1 <0>         0.3989
     50 H15         2.4191   -6.2716    4.1177 H         1 <0>         0.0941
     51 H16         0.8925   -5.8460    3.2842 H         1 <0>         0.0965
     52 H17         3.1327   -8.8666    3.7497 H         1 <0>         0.0869
     53 H18         1.9721   -9.7657    2.7240 H         1 <0>         0.0892
     54 H19         4.7586   -7.5357    0.8533 H         1 <0>         0.0977
     55 H20         4.8352   -7.8289    2.6079 H         1 <0>         0.1226
     56 H21         5.8501   -9.7058    1.3295 H         1 <0>         0.1404
     57 H22         4.4118  -10.2377    2.2326 H         1 <0>         0.1333
     58 H23         4.4325   -9.4619   -0.5966 H         1 <0>         0.4275
     59 H24         2.2341  -10.4342   -0.6287 H         1 <0>         0.1383
     60 H25         2.3798  -10.6469    1.1322 H         1 <0>         0.1346
     61 H26         1.1360   -8.5739    0.6045 H         1 <0>         0.1236
     62 H27         2.5106   -7.9885   -0.3642 H         1 <0>         0.0962
     63 H28         0.5474   -6.0318    5.3757 H         1 <0>         0.0850
     64 H29        -1.6038   -4.7992    5.3309 H         1 <0>         0.0603
     65 H30        -2.3128   -5.9964    6.4410 H         1 <0>         0.0662
     66 H31        -0.9862   -4.9462    6.9938 H         1 <0>         0.0668
     67 H32         0.6497   -8.2502    6.4787 H         1 <0>         0.0506
     68 H33         0.3298   -6.9615    7.6641 H         1 <0>         0.0636
     69 H34        -0.9968   -8.0116    7.1113 H         1 <0>         0.0690
     70 H35        -2.3690   -5.6511    3.6546 H         1 <0>         0.1268
     71 H36        -4.4805   -4.4505    3.2561 H         1 <0>         0.1251
     72 H37        -6.6106   -5.4148    4.0246 H         1 <0>         0.1261
     73 H38        -6.6348   -7.5812    5.1926 H         1 <0>         0.1320
     74 H39        -4.5287   -8.7934    5.5850 H         1 <0>         0.1317
     75 H40         4.4458  -11.0126   -0.0444 H         1 <0>         0.4344
@<TRIPOS>BOND
     1    1    2 1
     2    1   39 1
     3    1   40 1
     4    1   41 1
     5    2    7 ar
     6    2    3 ar
     7    3    4 ar
     8    3   42 1
     9    4    5 ar
    10    4   43 1
    11    5    6 ar
    12    5    8 1
    13    6    7 ar
    14    6   44 1
    15    7   45 1
    16    8    9 1
    17    8   10 1
    18    8   11 1
    19   10   46 1
    20   10   47 1
    21   10   48 1
    22   11   12 am
    23   11   49 1
    24   12   13 2
    25   12   14 1
    26   14   15 1
    27   14   19 1
    28   14   16 1
    29   16   17 1
    30   16   50 1
    31   16   51 1
    32   17   18 1
    33   17   25 am
    34   18   19 1
    35   18   52 1
    36   18   53 1
    37   19   24 1
    38   19   20 1
    39   20   21 1
    40   20   54 1
    41   20   55 1
    42   21   22 1
    43   21   56 1
    44   21   57 1
    45   22   23 1
    46   22   58 1
    47   22   75 1
    48   23   24 1
    49   23   59 1
    50   23   60 1
    51   24   61 1
    52   24   62 1
    53   25   26 2
    54   25   27 1
    55   27   28 1
    56   27   29 1
    57   27   32 1
    58   29   30 1
    59   29   31 1
    60   29   63 1
    61   30   64 1
    62   30   65 1
    63   30   66 1
    64   31   67 1
    65   31   68 1
    66   31   69 1
    67   32   33 1
    68   33   38 ar
    69   33   34 ar
    70   34   35 ar
    71   34   70 1
    72   35   36 ar
    73   35   71 1
    74   36   37 ar
    75   36   72 1
    76   37   38 ar
    77   37   73 1
    78   38   74 1
@<TRIPOS>MOLECULE
ZINC14526522
   60    64     0     0     0
SMALL
USER_CHARGES

@<TRIPOS>ATOM
      1 C1         -0.0187    1.5258    0.0104 C.3       1 <0>        -0.1538
      2 C2          0.0021   -0.0041    0.0020 C.3       1 <0>        -0.1042
      3 C3         -1.4339   -0.5358    0.0229 C.3       1 <0>        -0.1424
      4 C4         -1.4051   -2.0640    0.0946 C.3       1 <0>        -0.0064
      5 N1         -0.7073   -2.4871    1.3147 N.4       1 <0>        -0.3805
      6 C5          0.6906   -2.0421    1.2688 C.3       1 <0>        -0.0046
      7 C6          0.7425   -0.5130    1.2422 C.3       1 <0>        -0.1420
      8 C7         -0.7502   -3.9518    1.4187 C.3       1 <0>         0.0808
      9 C8         -0.1431   -4.3804    2.7297 C.2       1 <0>         0.0204
     10 C9         -0.9108   -4.6173    3.8216 C.2       1 <0>        -0.2546
     11 S1          0.3378   -5.0733    5.0136 S.3       1 <0>         0.3004
     12 C10         1.6824   -4.9170    4.0135 C.2       1 <0>         0.2587
     13 N2          1.1596   -4.5471    2.8644 N.2       1 <0>        -0.5574
     14 N3          3.0200   -5.1313    4.3247 N.am      1 <0>        -0.6101
     15 C11         3.3692   -5.5169    5.5681 C.2       1 <0>         0.5387
     16 O1          2.5163   -5.6768    6.4154 O.2       1 <0>        -0.4661
     17 C12         4.8194   -5.7493    5.9055 C.3       1 <0>        -0.1596
     18 S2          4.9627   -6.2552    7.6416 S.3       1 <0>        -0.0595
     19 C13         6.7448   -6.4919    7.8841 C.3       1 <0>        -0.0825
     20 C14         7.0059   -6.9196    9.3053 C.2       1 <0>         0.4132
     21 N4          8.2823   -7.1484    9.7083 N.am      1 <0>        -0.6319
     22 H1          9.0084   -7.0327    9.0756 H         1 <0>         0.4212
     23 C15         8.5604   -7.5322   10.9688 C.2       1 <0>         0.5567
     24 O2          9.7110   -7.7339   11.3169 O.2       1 <0>        -0.5117
     25 C16         7.4784   -7.6987   11.8933 C.2       1 <0>        -0.2257
     26 C17         7.5462   -8.1062   13.3046 C.2       1 <0>        -0.0784
     27 C18         6.3807   -8.1923   13.9684 C.2       1 <0>        -0.1900
     28 S3          5.1394   -7.7405   12.7781 S.3       1 <0>         0.2017
     29 C19         6.1978   -7.4399   11.3875 C.2       1 <0>         0.0923
     30 N5          6.0006   -7.0582   10.1279 N.2       1 <0>        -0.4626
     31 C20         6.5717   -8.6216   15.3983 C.3       1 <0>        -0.0348
     32 C21         7.9967   -9.2159   15.4376 C.3       1 <0>        -0.1177
     33 C22         8.6768   -8.4768   14.2685 C.3       1 <0>        -0.0633
     34 H2          1.0039    1.9031    0.0027 H         1 <0>         0.0665
     35 H3         -0.5459    1.8868   -0.8726 H         1 <0>         0.0673
     36 H4         -0.5289    1.8773    0.9072 H         1 <0>         0.0615
     37 H5          0.5096   -0.3568   -0.8958 H         1 <0>         0.0883
     38 H6         -1.9559   -0.1403    0.8942 H         1 <0>         0.0881
     39 H7         -1.9508   -0.2237   -0.8846 H         1 <0>         0.1129
     40 H8         -2.4259   -2.4459    0.1094 H         1 <0>         0.1318
     41 H9         -0.8832   -2.4585   -0.7772 H         1 <0>         0.1293
     42 H10         1.2170   -2.4078    2.1504 H         1 <0>         0.1320
     43 H11         1.1679   -2.4370    0.3719 H         1 <0>         0.1274
     44 H12         1.7812   -0.1846    1.2063 H         1 <0>         0.1092
     45 H13         0.2657   -0.1170    2.1388 H         1 <0>         0.0852
     46 H14        -1.7855   -4.2894    1.3701 H         1 <0>         0.1459
     47 H15        -0.1859   -4.3911    0.5961 H         1 <0>         0.1409
     48 H16        -1.9823   -4.5488    3.9384 H         1 <0>         0.2062
     49 H17         3.7022   -5.0034    3.6471 H         1 <0>         0.4304
     50 H18         5.2205   -6.5340    5.2641 H         1 <0>         0.1268
     51 H19         5.3812   -4.8286    5.7478 H         1 <0>         0.1262
     52 H20         7.1054   -7.2610    7.2011 H         1 <0>         0.1257
     53 H21         7.2661   -5.5556    7.6848 H         1 <0>         0.1253
     54 H22         6.4990   -7.7632   16.0661 H         1 <0>         0.0910
     55 H23         5.8361   -9.3789   15.6695 H         1 <0>         0.0850
     56 H24         8.4889   -8.9873   16.3829 H         1 <0>         0.0884
     57 H25         7.9760  -10.2912   15.2603 H         1 <0>         0.0791
     58 H26         9.3939   -9.1324   13.7743 H         1 <0>         0.0807
     59 H27         9.1744   -7.5769   14.6298 H         1 <0>         0.0839
     60 H28        -1.1621   -2.0815    2.1189 H         1 <0>         0.4206
@<TRIPOS>BOND
     1    1    2 1
     2    1   34 1
     3    1   35 1
     4    1   36 1
     5    2    7 1
     6    2    3 1
     7    2   37 1
     8    3    4 1
     9    3   38 1
    10    3   39 1
    11    4    5 1
    12    4   40 1
    13    4   41 1
    14    5    6 1
    15    5    8 1
    16    5   60 1
    17    6    7 1
    18    6   42 1
    19    6   43 1
    20    7   44 1
    21    7   45 1
    22    8    9 1
    23    8   46 1
    24    8   47 1
    25    9   13 1
    26    9   10 2
    27   10   11 1
    28   10   48 1
    29   11   12 1
    30   12   13 2
    31   12   14 1
    32   14   15 am
    33   14   49 1
    34   15   16 2
    35   15   17 1
    36   17   18 1
    37   17   50 1
    38   17   51 1
    39   18   19 1
    40   19   20 1
    41   19   52 1
    42   19   53 1
    43   20   30 2
    44   20   21 1
    45   21   22 1
    46   21   23 am
    47   23   24 2
    48   23   25 1
    49   25   29 2
    50   25   26 1
    51   26   33 1
    52   26   27 2
    53   27   28 1
    54   27   31 1
    55   28   29 1
    56   29   30 1
    57   31   32 1
    58   31   54 1
    59   31   55 1
    60   32   33 1
    61   32   56 1
    62   32   57 1
    63   33   58 1
    64   33   59 1
@<TRIPOS>MOLECULE
ZINC63819104
   67    71     0     0     0
SMALL
USER_CHARGES

@<TRIPOS>ATOM
      1 C1         -0.0178    1.4608    0.0101 C.3       1 <0>         0.0851
      2 N1          0.0021   -0.0041    0.0020 N.pl3     1 <0>        -0.6289
      3 C2          0.0241   -0.7433    1.2666 C.3       1 <0>         0.0874
      4 C3         -0.0000   -0.6959   -1.2114 C.ar      1 <0>         0.2360
      5 C4          0.0130   -2.0849   -1.2208 C.ar      1 <0>        -0.1900
      6 C5          0.0104   -2.7658   -2.4223 C.ar      1 <0>        -0.0421
      7 C6         -0.0046   -2.0664   -3.6151 C.ar      1 <0>        -0.1719
      8 C7         -0.0176   -0.6836   -3.6094 C.ar      1 <0>        -0.0703
      9 C8         -0.0209    0.0035   -2.4114 C.ar      1 <0>        -0.1930
     10 C9         -0.0064   -2.8128   -4.9243 C.3       1 <0>        -0.0057
     11 H1          0.0054   -3.8854   -4.7310 H         1 <0>         0.1238
     12 C10         1.2336   -2.4267   -5.7332 C.3       1 <0>         0.1260
     13 N2          1.2948   -3.2390   -6.9508 N.am      1 <0>        -0.7399
     14 C11         2.3091   -3.0715   -7.8224 C.2       1 <0>         0.5038
     15 O1          3.1711   -2.2482   -7.5987 O.2       1 <0>        -0.5083
     16 C12         2.3720   -3.9071   -9.0749 C.3       1 <0>         0.0999
     17 N3          3.5593   -3.5374   -9.8494 N.am      1 <0>        -0.5661
     18 C13         3.5802   -2.5704  -10.7919 C.2       1 <0>         0.5434
     19 O2          2.6573   -1.8688  -11.1464 O.2       1 <0>        -0.4614
     20 C14         4.9962   -2.5493  -11.3087 C.3       1 <0>         0.1183
     21 C15         5.6451   -1.1773  -11.0833 C.3       1 <0>        -0.1190
     22 C16         6.5584   -0.9866  -12.3220 C.3       1 <0>        -0.1236
     23 C17         5.7238   -1.6160  -13.4659 C.3       1 <0>        -0.1238
     24 C18         5.0438   -2.8388  -12.8108 C.3       1 <0>        -0.1188
     25 N4          5.6819   -3.5912  -10.5416 N.am      1 <0>        -0.7107
     26 C19         4.7605   -4.1125   -9.7068 C.2       1 <0>         0.7081
     27 O3          4.9928   -5.0060   -8.9164 O.2       1 <0>        -0.5359
     28 C20        -1.2458   -2.4565   -5.7040 C.2       1 <0>         0.0813
     29 C21        -2.2192   -3.3012   -6.1144 C.ar      1 <0>        -0.1736
     30 C22        -2.4075   -4.7491   -5.9646 C.ar      1 <0>        -0.0124
     31 C23        -3.5086   -5.3260   -6.4975 C.ar      1 <0>        -0.1507
     32 C24        -4.4718   -4.5777   -7.1880 C.ar      1 <0>         0.0529
     33 C25        -4.3684   -3.2437   -7.3667 C.ar      1 <0>        -0.2084
     34 C26        -3.2510   -2.5334   -6.8475 C.ar      1 <0>         0.3284
     35 N5         -2.9281   -1.2635   -6.8887 N.pl3     1 <0>        -0.5839
     36 C27        -1.6563   -1.0810   -6.1803 C.3       1 <0>         0.0528
     37 H2          1.0048    1.8381    0.0023 H         1 <0>         0.0563
     38 H3         -0.5450    1.8219   -0.8730 H         1 <0>         0.0698
     39 H4         -0.5280    1.8123    0.9069 H         1 <0>         0.0742
     40 H5          0.0224   -0.0395    2.0990 H         1 <0>         0.0803
     41 H6         -0.8567   -1.3823    1.3294 H         1 <0>         0.0592
     42 H7          0.9230   -1.3581    1.3125 H         1 <0>         0.0607
     43 H8          0.0255   -2.6317   -0.2895 H         1 <0>         0.1304
     44 H9          0.0205   -3.8457   -2.4303 H         1 <0>         0.1284
     45 H10        -0.0293   -0.1404   -4.5428 H         1 <0>         0.1180
     46 H11        -0.0356    1.0834   -2.4076 H         1 <0>         0.1300
     47 H12         1.1778   -1.3720   -6.0025 H         1 <0>         0.0800
     48 H13         2.1272   -2.6019   -5.1342 H         1 <0>         0.1008
     49 H14         0.6054   -3.8975   -7.1297 H         1 <0>         0.4000
     50 H15         2.4278   -4.9619   -8.8055 H         1 <0>         0.1323
     51 H16         1.4784   -3.7319   -9.6739 H         1 <0>         0.1251
     52 H17         4.8852   -0.3967  -11.0449 H         1 <0>         0.0890
     53 H18         6.2376   -1.1804  -10.1684 H         1 <0>         0.0868
     54 H19         6.7360    0.0721  -12.5113 H         1 <0>         0.0807
     55 H20         7.5002   -1.5199  -12.1929 H         1 <0>         0.0750
     56 H21         4.9749   -0.9100  -13.8248 H         1 <0>         0.0760
     57 H22         6.3731   -1.9325  -14.2822 H         1 <0>         0.0794
     58 H23         5.6287   -3.7388  -13.0004 H         1 <0>         0.0899
     59 H24         4.0333   -2.9592  -13.2013 H         1 <0>         0.0819
     60 H25         6.6132   -3.8518  -10.6168 H         1 <0>         0.4445
     61 H26        -1.6775   -5.3450   -5.4369 H         1 <0>         0.1609
     62 H27        -3.6492   -6.3912   -6.3884 H         1 <0>         0.1579
     63 H28        -5.3318   -5.0894   -7.5941 H         1 <0>         0.1602
     64 H29        -5.1383   -2.7129   -7.9070 H         1 <0>         0.1598
     65 H30        -1.7904   -0.4133   -5.3293 H         1 <0>         0.1759
     66 H31        -0.9047   -0.6788   -6.8595 H         1 <0>         0.1721
     67 H32        -3.4455   -0.5614   -7.3132 H         1 <0>         0.4555
@<TRIPOS>BOND
     1    1    2 1
     2    1   37 1
     3    1   38 1
     4    1   39 1
     5    2    3 1
     6    2    4 1
     7    3   40 1
     8    3   41 1
     9    3   42 1
    10    4    9 ar
    11    4    5 ar
    12    5    6 ar
    13    5   43 1
    14    6    7 ar
    15    6   44 1
    16    7    8 ar
    17    7   10 1
    18    8    9 ar
    19    8   45 1
    20    9   46 1
    21   10   11 1
    22   10   12 1
    23   10   28 1
    24   12   13 1
    25   12   47 1
    26   12   48 1
    27   13   14 am
    28   13   49 1
    29   14   15 2
    30   14   16 1
    31   16   17 1
    32   16   50 1
    33   16   51 1
    34   17   26 am
    35   17   18 am
    36   18   19 2
    37   18   20 1
    38   20   24 1
    39   20   21 1
    40   20   25 1
    41   21   22 1
    42   21   52 1
    43   21   53 1
    44   22   23 1
    45   22   54 1
    46   22   55 1
    47   23   24 1
    48   23   56 1
    49   23   57 1
    50   24   58 1
    51   24   59 1
    52   25   26 am
    53   25   60 1
    54   26   27 2
    55   28   36 1
    56   28   29 2
    57   29   34 ar
    58   29   30 ar
    59   30   31 ar
    60   30   61 1
    61   31   32 ar
    62   31   62 1
    63   32   33 ar
    64   32   63 1
    65   33   34 ar
    66   33   64 1
    67   34   35 2
    68   35   36 1
    69   35   67 1
    70   36   65 1
    71   36   66 1
@<TRIPOS>MOLECULE
ZINC00716531
   50    53     0     0     0
SMALL
USER_CHARGES
2,4-dichloro-N-[2-(tetrahydrofuran-2-ylmethylcarbamoylmethylsulfanyl)benzothiazol-6-yl]-benzamide
@<TRIPOS>ATOM
      1 C1          0.8610    5.8010   10.9221 C.ar      1 <0>        -0.1288
      2 C2          0.4507    5.4086    9.6750 C.ar      1 <0>        -0.0399
      3 C3         -0.9148    5.4592    9.3123 C.ar      1 <0>         0.0712
      4 C4         -1.8087    5.9321   10.3000 C.ar      1 <0>        -0.1267
      5 C5         -1.3953    6.3246   11.5474 C.ar      1 <0>        -0.0653
      6 C6         -0.0459    6.2623   11.8729 C.ar      1 <0>         0.1694
      7 N1          0.3964    6.6581   13.1412 N.am      1 <0>        -0.6643
      8 C7         -0.3910    6.4697   14.2187 C.2       1 <0>         0.5555
      9 O1         -1.4429    5.8704   14.1056 O.2       1 <0>        -0.4841
     10 C8          0.0238    6.9910   15.5367 C.ar      1 <0>        -0.1311
     11 C9          1.2316    7.6799   15.6700 C.ar      1 <0>        -0.0598
     12 C10         1.6131    8.1645   16.9026 C.ar      1 <0>        -0.1135
     13 C11         0.8015    7.9705   18.0089 C.ar      1 <0>         0.0033
     14 C12        -0.3968    7.2889   17.8848 C.ar      1 <0>        -0.1119
     15 C13        -0.7931    6.8024   16.6547 C.ar      1 <0>         0.0282
     16 Cl1        -2.2996    5.9539   16.4986 Cl        1 <0>        -0.0108
     17 Cl2         1.2901    8.5845   19.5575 Cl        1 <0>        -0.0421
     18 S1         -3.3749    5.8489    9.4651 S.3       1 <0>         0.0574
     19 C14        -2.7688    5.2032    7.9128 C.2       1 <0>         0.0956
     20 N2         -1.4768    5.1107    8.1329 N.2       1 <0>        -0.5029
     21 S2         -3.6730    4.8004    6.4552 S.3       1 <0>         0.1287
     22 C15        -2.3206    4.2386    5.3915 C.3       1 <0>        -0.1595
     23 C16        -2.8728    3.8306    4.0500 C.2       1 <0>         0.5338
     24 O2         -4.0635    3.9117    3.8343 O.2       1 <0>        -0.5234
     25 N3         -2.0435    3.3757    3.0900 N.am      1 <0>        -0.7184
     26 C17        -2.5804    2.9790    1.7859 C.3       1 <0>         0.1269
     27 C18        -1.4371    2.5042    0.8868 C.3       1 <0>         0.0617
     28 H1         -0.6420    3.2489    0.8533 H         1 <0>         0.0796
     29 C19        -1.9571    2.1964   -0.5406 C.3       1 <0>        -0.1466
     30 C20        -0.9054    1.1849   -1.0578 C.3       1 <0>        -0.1564
     31 C21        -0.2584    0.6245    0.2236 C.3       1 <0>         0.0457
     32 O3         -0.9247    1.2317    1.3432 O.3       1 <0>        -0.3721
     33 H2          1.9103    5.7517   11.1729 H         1 <0>         0.1397
     34 H3          1.1795    5.0553    8.9605 H         1 <0>         0.1394
     35 H4         -2.1136    6.6793   12.2717 H         1 <0>         0.1473
     36 H5          1.2696    7.0678   13.2443 H         1 <0>         0.4135
     37 H6          1.8651    7.8327   14.8088 H         1 <0>         0.1460
     38 H7          2.5469    8.6972   17.0064 H         1 <0>         0.1504
     39 H8         -1.0251    7.1412   18.7507 H         1 <0>         0.1543
     40 H9         -1.8242    3.3859    5.8547 H         1 <0>         0.1295
     41 H10        -1.6030    5.0482    5.2581 H         1 <0>         0.1289
     42 H11        -1.0912    3.3108    3.2625 H         1 <0>         0.4076
     43 H12        -3.0767    3.8318    1.3227 H         1 <0>         0.0874
     44 H13        -3.2979    2.1695    1.9193 H         1 <0>         0.0819
     45 H14        -1.9651    3.0972   -1.1543 H         1 <0>         0.0860
     46 H15        -2.9477    1.7433   -0.5044 H         1 <0>         0.0837
     47 H16        -0.1600    1.6901   -1.6720 H         1 <0>         0.0776
     48 H17        -1.3866    0.3866   -1.6228 H         1 <0>         0.0809
     49 H18        -0.3843   -0.4576    0.2596 H         1 <0>         0.0860
     50 H19         0.8023    0.8748    0.2432 H         1 <0>         0.0606
@<TRIPOS>BOND
     1    1    6 ar
     2    1    2 ar
     3    1   33 1
     4    2    3 ar
     5    2   34 1
     6    3   20 1
     7    3    4 ar
     8    4    5 ar
     9    4   18 1
    10    5    6 ar
    11    5   35 1
    12    6    7 1
    13    7    8 am
    14    7   36 1
    15    8    9 2
    16    8   10 1
    17   10   15 ar
    18   10   11 ar
    19   11   12 ar
    20   11   37 1
    21   12   13 ar
    22   12   38 1
    23   13   14 ar
    24   13   17 1
    25   14   15 ar
    26   14   39 1
    27   15   16 1
    28   18   19 1
    29   19   20 2
    30   19   21 1
    31   21   22 1
    32   22   23 1
    33   22   40 1
    34   22   41 1
    35   23   24 2
    36   23   25 am
    37   25   26 1
    38   25   42 1
    39   26   27 1
    40   26   43 1
    41   26   44 1
    42   27   28 1
    43   27   32 1
    44   27   29 1
    45   29   30 1
    46   29   45 1
    47   29   46 1
    48   30   31 1
    49   30   47 1
    50   30   48 1
    51   31   32 1
    52   31   49 1
    53   31   50 1
@<TRIPOS>MOLECULE
ZINC09464342
   44    47     0     0     0
SMALL
USER_CHARGES
3-[(3-bromophenoxy)methyl]-5-[[2-(4-fluorophenyl)thiazol-4-yl]methylsulfanyl]-1,2,4-triazol-4-amine
@<TRIPOS>ATOM
      1 C1         -6.1011    0.6008    3.0156 C.ar      1 <0>        -0.0708
      2 C2         -4.7937    1.0092    2.8336 C.ar      1 <0>        -0.1307
      3 C3         -4.2916    1.1741    1.5511 C.ar      1 <0>         0.1340
      4 C4         -5.1055    0.9340    0.4535 C.ar      1 <0>        -0.1830
      5 C5         -6.4111    0.5207    0.6404 C.ar      1 <0>        -0.0508
      6 C6         -6.9092    0.3570    1.9210 C.ar      1 <0>        -0.1236
      7 Br1        -7.5195    0.1861   -0.8547 Br        1 <0>        -0.0396
      8 O1         -3.0059    1.5756    1.3700 O.3       1 <0>        -0.3060
      9 C7         -2.5565    1.7246    0.0217 C.3       1 <0>         0.1501
     10 C8         -1.1177    2.1726    0.0184 C.2       1 <0>         0.1397
     11 N1         -0.6924    3.4043    0.0257 N.2       1 <0>        -0.2344
     12 N2          0.5925    3.4275    0.0140 N.2       1 <0>        -0.2850
     13 C9          1.0606    2.2009    0.0038 C.2       1 <0>         0.1936
     14 N3         -0.0164    1.3618    0.0095 N.pl3     1 <0>        -0.2981
     15 N4          0.0021   -0.0041    0.0020 N.3       1 <0>        -0.5826
     16 S1          2.7577    1.7273   -0.0132 S.3       1 <0>         0.0569
     17 C10         3.5396    3.3597   -0.0129 C.3       1 <0>        -0.0450
     18 C11         5.0379    3.1989   -0.0268 C.2       1 <0>         0.0645
     19 C12         5.7044    3.1315   -1.2095 C.2       1 <0>        -0.1737
     20 S2          7.3868    2.9497   -0.6304 S.3       1 <0>         0.0357
     21 C13         7.0196    2.9833    1.1192 C.2       1 <0>         0.1603
     22 N5          5.7021    3.1293    1.1032 N.2       1 <0>        -0.4849
     23 C14         7.9385    2.8813    2.2729 C.ar      1 <0>        -0.0309
     24 C15         7.4373    2.9359    3.5743 C.ar      1 <0>        -0.0385
     25 C16         8.2982    2.8349    4.6470 C.ar      1 <0>        -0.1537
     26 C17         9.6600    2.6900    4.4344 C.ar      1 <0>         0.1220
     27 C18        10.1636    2.6409    3.1442 C.ar      1 <0>        -0.1513
     28 C19         9.3108    2.7357    2.0644 C.ar      1 <0>        -0.0607
     29 F1         10.4997    2.5968    5.4887 F         1 <0>        -0.1320
     30 H1         -6.4921    0.4724    4.0141 H         1 <0>         0.1432
     31 H2         -4.1632    1.2001    3.6894 H         1 <0>         0.1394
     32 H3         -4.7181    1.0661   -0.5459 H         1 <0>         0.1383
     33 H4         -7.9310    0.0386    2.0654 H         1 <0>         0.1380
     34 H5         -3.1701    2.4691   -0.4856 H         1 <0>         0.1104
     35 H6         -2.6409    0.7696   -0.4970 H         1 <0>         0.0825
     36 H7          0.0156   -0.3707    0.9420 H         1 <0>         0.3722
     37 H8         -0.7791   -0.3734   -0.5190 H         1 <0>         0.3768
     38 H9          3.2254    3.9132   -0.8978 H         1 <0>         0.1160
     39 H10         3.2410    3.9054    0.8821 H         1 <0>         0.1166
     40 H11         5.3237    3.1760   -2.2192 H         1 <0>         0.2065
     41 H12         6.3767    3.0530    3.7410 H         1 <0>         0.1477
     42 H13         7.9110    2.8730    5.6544 H         1 <0>         0.1459
     43 H14        11.2257    2.5286    2.9840 H         1 <0>         0.1463
     44 H15         9.7043    2.6977    1.0594 H         1 <0>         0.1384
@<TRIPOS>BOND
     1    1    6 ar
     2    1    2 ar
     3    1   30 1
     4    2    3 ar
     5    2   31 1
     6    3    4 ar
     7    3    8 1
     8    4    5 ar
     9    4   32 1
    10    5    6 ar
    11    5    7 1
    12    6   33 1
    13    8    9 1
    14    9   10 1
    15    9   34 1
    16    9   35 1
    17   10   14 1
    18   10   11 2
    19   11   12 1
    20   12   13 2
    21   13   14 1
    22   13   16 1
    23   14   15 1
    24   15   36 1
    25   15   37 1
    26   16   17 1
    27   17   18 1
    28   17   38 1
    29   17   39 1
    30   18   22 1
    31   18   19 2
    32   19   20 1
    33   19   40 1
    34   20   21 1
    35   21   22 2
    36   21   23 1
    37   23   28 ar
    38   23   24 ar
    39   24   25 ar
    40   24   41 1
    41   25   26 ar
    42   25   42 1
    43   26   27 ar
    44   26   29 1
    45   27   28 ar
    46   27   43 1
    47   28   44 1
@<TRIPOS>MOLECULE
ZINC34849269
   79    84     0     0     0
SMALL
USER_CHARGES

@<TRIPOS>ATOM
      1 C1         -3.1447   -2.9783   -2.6734 C.3       1 <0>        -0.1138
      2 C2         -2.0643   -2.7256   -1.6536 C.ar      1 <0>        -0.0692
      3 C3         -1.0731   -1.7967   -1.9130 C.ar      1 <0>        -0.1383
      4 C4         -0.0804   -1.5617   -0.9798 C.ar      1 <0>        -0.0997
      5 C5         -0.0758   -2.2545    0.2152 C.ar      1 <0>        -0.1281
      6 C6         -1.0696   -3.1878    0.4787 C.ar      1 <0>         0.1634
      7 C7         -2.0684   -3.4177   -0.4587 C.ar      1 <0>        -0.1401
      8 N1         -1.0676   -3.8916    1.6881 N.am      1 <0>        -0.6616
      9 C8          0.1004   -4.2466    2.2592 C.2       1 <0>         0.5348
     10 O1          1.1495   -3.8847    1.7698 O.2       1 <0>        -0.4989
     11 C9          0.1030   -5.0933    3.5059 C.3       1 <0>        -0.1197
     12 H1         -0.8000   -4.9231    4.0922 H         1 <0>         0.1161
     13 C10         1.3836   -4.8254    4.3610 C.3       1 <0>         0.1062
     14 H2          1.6384   -3.7759    4.5082 H         1 <0>         0.1449
     15 C11         1.2456   -5.6561    5.6420 C.2       1 <0>        -0.1544
     16 C12         1.4363   -6.9384    5.3074 C.2       1 <0>        -0.1604
     17 C13         1.6470   -6.8913    3.8365 C.3       1 <0>         0.1025
     18 C14         0.2609   -6.5844    3.1585 C.3       1 <0>        -0.1452
     19 H3         -0.5443   -7.1981    3.5623 H         1 <0>         0.1356
     20 C15         0.5553   -6.8696    1.7129 C.2       1 <0>         0.5483
     21 O2         -0.0357   -6.3903    0.7684 O.2       1 <0>        -0.4932
     22 N2          1.5871   -7.7474    1.6304 N.am      1 <0>        -0.5977
     23 C16         2.1386   -8.0379    3.0096 C.3       1 <0>         0.1426
     24 H4          3.2280   -8.0431    2.9728 H         1 <0>         0.1214
     25 C17         1.6210   -9.3435    3.5560 C.2       1 <0>         0.5131
     26 O3          0.6075   -9.8314    3.1025 O.2       1 <0>        -0.5102
     27 N3          2.2844   -9.9690    4.5485 N.am      1 <0>        -0.7154
     28 C18         1.8519  -11.2951    4.9965 C.3       1 <0>         0.1549
     29 H5          1.5548  -11.8911    4.1336 H         1 <0>         0.0870
     30 C19         0.6636  -11.1492    5.9491 C.3       1 <0>        -0.1330
     31 C20         1.0806  -10.3126    7.1603 C.3       1 <0>        -0.1185
     32 C21         2.2343  -11.0068    7.8868 C.3       1 <0>        -0.1222
     33 C22         3.4227  -11.1527    6.9342 C.3       1 <0>        -0.1164
     34 C23         3.0057  -11.9893    5.7230 C.3       1 <0>        -0.0996
     35 H6          2.6839  -12.9760    6.0564 H         1 <0>         0.0879
     36 C24         4.1940  -12.1353    4.7704 C.3       1 <0>        -0.1497
     37 C25         2.0721   -8.3462    0.3844 C.3       1 <0>         0.1785
     38 C26         2.6043   -7.2269   -0.5336 C.3       1 <0>        -0.1230
     39 C27         3.5385   -7.8395   -1.5418 C.3       1 <0>        -0.1149
     40 C28         2.8297   -8.1933   -2.8632 C.3       1 <0>        -0.1164
     41 C29         1.4409   -8.8240   -2.6459 C.3       1 <0>        -0.1219
     42 C30         1.4311   -9.8210   -1.5188 C.3       1 <0>        -0.1070
     43 C31         0.9884   -9.0990   -0.2297 C.3       1 <0>        -0.1405
     44 O4          2.3636   -5.6286    3.6084 O.3       1 <0>        -0.3169
     45 H7         -3.9796   -2.3010   -2.4937 H         1 <0>         0.0703
     46 H8         -2.7471   -2.8074   -3.6739 H         1 <0>         0.0669
     47 H9         -3.4888   -4.0092   -2.5904 H         1 <0>         0.0653
     48 H10        -1.0742   -1.2540   -2.8468 H         1 <0>         0.1204
     49 H11         0.6925   -0.8359   -1.1855 H         1 <0>         0.1230
     50 H12         0.7000   -2.0707    0.9437 H         1 <0>         0.1349
     51 H13        -2.8451   -4.1400   -0.2549 H         1 <0>         0.1217
     52 H14        -1.9068   -4.1240    2.1154 H         1 <0>         0.4069
     53 H15         1.0338   -5.2773    6.6310 H         1 <0>         0.1578
     54 H16         1.4374   -7.8035    5.9541 H         1 <0>         0.1627
     55 H17         3.0481   -9.5412    4.9662 H         1 <0>         0.4008
     56 H18        -0.1584  -10.6546    5.4315 H         1 <0>         0.0717
     57 H19         0.3418  -12.1358    6.2824 H         1 <0>         0.0734
     58 H20         1.4024   -9.3259    6.8270 H         1 <0>         0.0587
     59 H21         0.2340  -10.2086    7.8390 H         1 <0>         0.0639
     60 H22         2.5314  -10.4108    8.7497 H         1 <0>         0.0641
     61 H23         1.9126  -11.9934    8.2202 H         1 <0>         0.0649
     62 H24         3.7444  -10.1661    6.6009 H         1 <0>         0.0596
     63 H25         4.2446  -11.6473    7.4518 H         1 <0>         0.0688
     64 H26         4.5158  -11.1486    4.4371 H         1 <0>         0.0546
     65 H27         5.0160  -12.6299    5.2880 H         1 <0>         0.0597
     66 H28         3.8969  -12.7313    3.9075 H         1 <0>         0.0572
     67 H29         2.8893   -9.0292    0.6162 H         1 <0>         0.0782
     68 H30         1.7713   -6.7491   -1.0492 H         1 <0>         0.0786
     69 H31         3.1415   -6.4890    0.0623 H         1 <0>         0.0684
     70 H32         4.3431   -7.1346   -1.7509 H         1 <0>         0.0625
     71 H33         3.9685   -8.7471   -1.1182 H         1 <0>         0.0587
     72 H34         2.7146   -7.2850   -3.4546 H         1 <0>         0.0590
     73 H35         3.4516   -8.8954   -3.4186 H         1 <0>         0.0587
     74 H36         0.7252   -8.0327   -2.4230 H         1 <0>         0.0633
     75 H37         1.1342   -9.3261   -3.5635 H         1 <0>         0.0584
     76 H38         0.7312  -10.6248   -1.7471 H         1 <0>         0.0656
     77 H39         2.4321  -10.2307   -1.3837 H         1 <0>         0.0643
     78 H40         0.6251   -9.8397    0.4827 H         1 <0>         0.0702
     79 H41         0.1749   -8.4145   -0.4700 H         1 <0>         0.0758
@<TRIPOS>BOND
     1    1    2 1
     2    1   45 1
     3    1   46 1
     4    1   47 1
     5    2    7 ar
     6    2    3 ar
     7    3    4 ar
     8    3   48 1
     9    4    5 ar
    10    4   49 1
    11    5    6 ar
    12    5   50 1
    13    6    7 ar
    14    6    8 1
    15    7   51 1
    16    8    9 am
    17    8   52 1
    18    9   10 2
    19    9   11 1
    20   11   12 1
    21   11   18 1
    22   11   13 1
    23   13   14 1
    24   13   44 1
    25   13   15 1
    26   15   16 2
    27   15   53 1
    28   16   17 1
    29   16   54 1
    30   17   23 1
    31   17   18 1
    32   17   44 1
    33   18   19 1
    34   18   20 1
    35   20   21 2
    36   20   22 am
    37   22   23 1
    38   22   37 1
    39   23   24 1
    40   23   25 1
    41   25   26 2
    42   25   27 am
    43   27   28 1
    44   27   55 1
    45   28   29 1
    46   28   34 1
    47   28   30 1
    48   30   31 1
    49   30   56 1
    50   30   57 1
    51   31   32 1
    52   31   58 1
    53   31   59 1
    54   32   33 1
    55   32   60 1
    56   32   61 1
    57   33   34 1
    58   33   62 1
    59   33   63 1
    60   34   35 1
    61   34   36 1
    62   36   64 1
    63   36   65 1
    64   36   66 1
    65   37   43 1
    66   37   38 1
    67   37   67 1
    68   38   39 1
    69   38   68 1
    70   38   69 1
    71   39   40 1
    72   39   70 1
    73   39   71 1
    74   40   41 1
    75   40   72 1
    76   40   73 1
    77   41   42 1
    78   41   74 1
    79   41   75 1
    80   42   43 1
    81   42   76 1
    82   42   77 1
    83   43   78 1
    84   43   79 1
@<TRIPOS>MOLECULE
ZINC38651702
   51    54     0     0     0
SMALL
USER_CHARGES

@<TRIPOS>ATOM
      1 C1         -0.4270    0.2730   -0.1916 C.3       1 <0>        -0.1793
      2 C2         -1.1221   -0.7152    0.7472 C.3       1 <0>         0.1002
      3 H1         -1.8442   -0.1822    1.3657 H         1 <0>         0.1179
      4 C3         -0.0953   -1.3761    1.6304 C.2       1 <0>         0.4632
      5 O1          0.1068   -2.5638    1.5376 O.2       1 <0>        -0.4528
      6 O2          0.5950   -0.6452    2.5203 O.3       1 <0>        -0.2865
      7 C4          1.5533   -1.2709    3.2536 C.ar      1 <0>         0.1157
      8 C5          2.7781   -1.5792    2.6781 C.ar      1 <0>        -0.1243
      9 C6          3.7506   -2.2148    3.4242 C.ar      1 <0>        -0.0598
     10 C7          3.5096   -2.5473    4.7456 C.ar      1 <0>        -0.1135
     11 C8          2.2882   -2.2418    5.3253 C.ar      1 <0>         0.1326
     12 C9          1.3111   -1.5967    4.5780 C.ar      1 <0>        -0.1203
     13 O3          2.0333   -2.5594    6.6187 O.3       1 <0>        -0.2416
     14 C10         3.0499   -2.8137    7.4592 C.2       1 <0>         0.4437
     15 C11         4.2848   -3.1425    7.0117 C.2       1 <0>        -0.2790
     16 C12         4.5827   -3.2412    5.5420 C.3       1 <0>         0.0825
     17 H2          5.5450   -2.7724    5.3364 H         1 <0>         0.1056
     18 C13         4.6422   -4.6926    5.1410 C.ar      1 <0>        -0.0624
     19 C14         3.5293   -5.4982    5.2946 C.ar      1 <0>        -0.0951
     20 C15         3.5833   -6.8293    4.9265 C.ar      1 <0>        -0.0872
     21 C16         4.7512   -7.3555    4.4044 C.ar      1 <0>        -0.0892
     22 C17         5.8645   -6.5491    4.2508 C.ar      1 <0>        -0.0876
     23 C18         5.8080   -5.2167    4.6143 C.ar      1 <0>        -0.1054
     24 Br1         4.8259   -9.1768    3.9012 Br        1 <0>        -0.0500
     25 C19         5.3282   -3.4010    7.9578 C.1       1 <0>         0.2711
     26 N1          6.1559   -3.6061    8.7084 N.1       1 <0>        -0.4398
     27 N2          2.8304   -2.7374    8.8120 N.pl3     1 <0>        -0.8279
     28 O4         -1.7981   -1.7102   -0.0242 O.3       1 <0>        -0.2820
     29 C20        -3.0352   -1.3941   -0.4911 C.ar      1 <0>         0.0938
     30 C21        -3.5669   -0.1358   -0.2532 C.ar      1 <0>        -0.1852
     31 C22        -4.8245    0.1834   -0.7286 C.ar      1 <0>        -0.0875
     32 C23        -5.5540   -0.7504   -1.4409 C.ar      1 <0>        -0.1231
     33 C24        -5.0279   -2.0064   -1.6800 C.ar      1 <0>        -0.1147
     34 C25        -3.7667   -2.3293   -1.2122 C.ar      1 <0>         0.0772
     35 F1         -3.2498   -3.5544   -1.4509 F         1 <0>        -0.1280
     36 H3          0.2951   -0.2600   -0.8101 H         1 <0>         0.0791
     37 H4         -1.1697    0.7510   -0.8304 H         1 <0>         0.0857
     38 H5          0.0886    1.0319    0.3968 H         1 <0>         0.0931
     39 H6          2.9703   -1.3223    1.6468 H         1 <0>         0.1401
     40 H7          4.7031   -2.4538    2.9746 H         1 <0>         0.1458
     41 H8          0.3602   -1.3534    5.0283 H         1 <0>         0.1489
     42 H9          2.6176   -5.0874    5.7026 H         1 <0>         0.1246
     43 H10         2.7139   -7.4587    5.0469 H         1 <0>         0.1330
     44 H11         6.7766   -6.9594    3.8432 H         1 <0>         0.1343
     45 H12         6.6759   -4.5860    4.4907 H         1 <0>         0.1332
     46 H13         1.9513   -2.5027    9.1482 H         1 <0>         0.4127
     47 H14         3.5543   -2.9182    9.4318 H         1 <0>         0.4269
     48 H15        -2.9984    0.5944    0.3037 H         1 <0>         0.1415
     49 H16        -5.2383    1.1636   -0.5431 H         1 <0>         0.1362
     50 H17        -6.5368   -0.4984   -1.8110 H         1 <0>         0.1378
     51 H18        -5.6000   -2.7344   -2.2361 H         1 <0>         0.1457
@<TRIPOS>BOND
     1    1    2 1
     2    1   36 1
     3    1   37 1
     4    1   38 1
     5    2    3 1
     6    2    4 1
     7    2   28 1
     8    4    5 2
     9    4    6 1
    10    6    7 1
    11    7   12 ar
    12    7    8 ar
    13    8    9 ar
    14    8   39 1
    15    9   10 ar
    16    9   40 1
    17   10   16 1
    18   10   11 ar
    19   11   12 ar
    20   11   13 1
    21   12   41 1
    22   13   14 1
    23   14   15 2
    24   14   27 1
    25   15   16 1
    26   15   25 1
    27   16   17 1
    28   16   18 1
    29   18   23 ar
    30   18   19 ar
    31   19   20 ar
    32   19   42 1
    33   20   21 ar
    34   20   43 1
    35   21   22 ar
    36   21   24 1
    37   22   23 ar
    38   22   44 1
    39   23   45 1
    40   25   26 3
    41   27   46 1
    42   27   47 1
    43   28   29 1
    44   29   34 ar
    45   29   30 ar
    46   30   31 ar
    47   30   48 1
    48   31   32 ar
    49   31   49 1
    50   32   33 ar
    51   32   50 1
    52   33   34 ar
    53   33   51 1
    54   34   35 1
@<TRIPOS>MOLECULE
ZINC40811821
   50    53     0     0     0
SMALL
USER_CHARGES

@<TRIPOS>ATOM
      1 C1         -0.0429    1.5039    0.0118 C.3       1 <0>        -0.1029
      2 C2         -0.0244   -0.0030    0.0029 C.2       1 <0>        -0.0171
      3 C3         -0.0281   -0.8369   -1.1220 C.2       1 <0>        -0.1571
      4 C4         -0.0073   -2.1362   -0.6725 C.2       1 <0>         0.0729
      5 O1          0.0117   -2.1108    0.6582 O.3       1 <0>        -0.1456
      6 C5          0.0054   -0.8297    1.0914 C.2       1 <0>        -0.1093
      7 C6          0.0249   -0.3993    2.4937 C.2       1 <0>         0.6146
      8 O2          0.0147    0.7867    2.7666 O.2       1 <0>        -0.4918
      9 N1          0.0540   -1.3174    3.4800 N.am      1 <0>        -0.6624
     10 C7          0.1670   -0.9081    4.8147 C.ar      1 <0>         0.1043
     11 C8         -0.4365    0.2694    5.2342 C.ar      1 <0>        -0.0648
     12 C9         -0.3244    0.6714    6.5511 C.ar      1 <0>        -0.1408
     13 C10         0.3898   -0.0987    7.4536 C.ar      1 <0>         0.1192
     14 C11         0.9936   -1.2737    7.0390 C.ar      1 <0>        -0.1722
     15 C12         0.8791   -1.6836    5.7231 C.ar      1 <0>         0.1072
     16 F1          1.4631   -2.8331    5.3194 F         1 <0>        -0.1268
     17 F2          0.4979    0.2973    8.7407 F         1 <0>        -0.1285
     18 C13        -0.0097   -3.3251   -1.5996 C.3       1 <0>        -0.0459
     19 C14        -0.5451   -2.9005   -2.9697 C.3       1 <0>        -0.1098
     20 C15         0.2226   -1.6833   -3.4963 C.3       1 <0>        -0.1197
     21 C16        -0.0475   -0.5104   -2.5651 C.2       1 <0>         0.1681
     22 N2         -0.2775    0.6887   -3.0045 N.2       1 <0>        -0.2164
     23 N3         -0.2837    0.9405   -4.3827 N.am      1 <0>        -0.5796
     24 C17        -0.5227    2.1859   -4.8391 C.2       1 <0>         0.5769
     25 O3         -0.7328    3.0911   -4.0546 O.2       1 <0>        -0.4898
     26 C18        -0.5293    2.4514   -6.2925 C.ar      1 <0>        -0.1178
     27 C19        -0.2940    1.4131   -7.1959 C.ar      1 <0>        -0.0822
     28 C20        -0.3014    1.6673   -8.5513 C.ar      1 <0>        -0.0959
     29 C21        -0.5411    2.9493   -9.0169 C.ar      1 <0>        -0.0654
     30 C22        -0.7751    3.9833   -8.1260 C.ar      1 <0>        -0.0946
     31 C23        -0.7765    3.7406   -6.7685 C.ar      1 <0>        -0.0477
     32 Br1        -0.5483    3.2894  -10.8771 Br        1 <0>        -0.0350
     33 H1          0.9800    1.8799   -0.0041 H         1 <0>         0.0787
     34 H2         -0.5768    1.8659   -0.8668 H         1 <0>         0.0884
     35 H3         -0.5454    1.8558    0.9128 H         1 <0>         0.0874
     36 H4         -0.0032   -2.2617    3.2655 H         1 <0>         0.4198
     37 H5         -0.9932    0.8713    4.5312 H         1 <0>         0.1622
     38 H6         -0.7941    1.5876    6.8771 H         1 <0>         0.1500
     39 H7          1.5504   -1.8726    7.7445 H         1 <0>         0.1549
     40 H8          1.0066   -3.7038   -1.7078 H         1 <0>         0.1049
     41 H9         -0.6472   -4.1069   -1.1866 H         1 <0>         0.1017
     42 H10        -0.4327   -3.7271   -3.6712 H         1 <0>         0.0951
     43 H11        -1.6015   -2.6475   -2.8799 H         1 <0>         0.0774
     44 H12         1.2904   -1.9013   -3.5129 H         1 <0>         0.1007
     45 H13        -0.1193   -1.4402   -4.5023 H         1 <0>         0.0790
     46 H14        -0.1161    0.2185   -5.0084 H         1 <0>         0.3851
     47 H15        -0.1062    0.4130   -6.8340 H         1 <0>         0.1324
     48 H16        -0.1196    0.8651   -9.2511 H         1 <0>         0.1429
     49 H17        -0.9614    4.9810   -8.4953 H         1 <0>         0.1452
     50 H18        -0.9639    4.5469   -6.0748 H         1 <0>         0.1502
@<TRIPOS>BOND
     1    1    2 1
     2    1   33 1
     3    1   34 1
     4    1   35 1
     5    2    6 2
     6    2    3 1
     7    3   21 1
     8    3    4 2
     9    4    5 1
    10    4   18 1
    11    5    6 1
    12    6    7 1
    13    7    8 2
    14    7    9 am
    15    9   10 1
    16    9   36 1
    17   10   15 ar
    18   10   11 ar
    19   11   12 ar
    20   11   37 1
    21   12   13 ar
    22   12   38 1
    23   13   14 ar
    24   13   17 1
    25   14   15 ar
    26   14   39 1
    27   15   16 1
    28   18   19 1
    29   18   40 1
    30   18   41 1
    31   19   20 1
    32   19   42 1
    33   19   43 1
    34   20   21 1
    35   20   44 1
    36   20   45 1
    37   21   22 2
    38   22   23 1
    39   23   24 am
    40   23   46 1
    41   24   25 2
    42   24   26 1
    43   26   31 ar
    44   26   27 ar
    45   27   28 ar
    46   27   47 1
    47   28   29 ar
    48   28   48 1
    49   29   30 ar
    50   29   32 1
    51   30   31 ar
    52   30   49 1
    53   31   50 1
@<TRIPOS>MOLECULE
ZINC09120365
   53    57     0     0     0
SMALL
USER_CHARGES
N-(1-adamantylcarbamoyl)-2-[[5-(2-bromophenyl)-1,3,4-oxadiazol-2-yl]sulfanyl]acetamide
@<TRIPOS>ATOM
      1 C1        -16.0916    0.1461    5.8581 C.ar      1 <0>        -0.1046
      2 C2        -17.0103   -0.6183    5.1602 C.ar      1 <0>        -0.0869
      3 C3        -16.6580   -1.2106    3.9609 C.ar      1 <0>        -0.0919
      4 C4        -15.3856   -1.0424    3.4521 C.ar      1 <0>        -0.0545
      5 C5        -14.4539   -0.2718    4.1514 C.ar      1 <0>        -0.0022
      6 C6        -14.8154    0.3185    5.3640 C.ar      1 <0>        -0.0783
      7 C7        -13.0904   -0.0871    3.6135 C.2       1 <0>         0.1991
      8 N1        -12.6226   -0.5878    2.4962 N.2       1 <0>        -0.2320
      9 N2        -11.4002   -0.2182    2.3406 N.2       1 <0>        -0.2882
     10 C8        -11.0358    0.5264    3.3589 C.2       1 <0>         0.1202
     11 O1        -12.0957    0.6289    4.1833 O.3       1 <0>        -0.1958
     12 S1         -9.4531    1.2627    3.5988 S.3       1 <0>         0.1619
     13 C9         -8.6059    0.6790    2.1096 C.3       1 <0>        -0.1679
     14 C10        -7.1921    1.2006    2.0989 C.2       1 <0>         0.5428
     15 O2         -6.7964    1.8980    3.0082 O.2       1 <0>        -0.4481
     16 N3         -6.3676    0.8917    1.0785 N.am      1 <0>        -0.6857
     17 C11        -5.1031    1.3582    1.0690 C.2       1 <0>         0.6964
     18 O3         -4.7065    2.0574    1.9805 O.2       1 <0>        -0.5176
     19 N4         -4.2786    1.0494    0.0485 N.am      1 <0>        -0.7302
     20 C12        -2.9042    1.5565    0.0381 C.3       1 <0>         0.1994
     21 C13        -2.1881    1.0631   -1.2207 C.3       1 <0>        -0.1138
     22 C14        -0.7527    1.5927   -1.2315 C.3       1 <0>        -0.0800
     23 C15        -0.0127    1.0858    0.0080 C.3       1 <0>        -0.1119
     24 C16        -0.7288    1.5792    1.2668 C.3       1 <0>        -0.0821
     25 C17        -2.1642    1.0497    1.2777 C.3       1 <0>        -0.1243
     26 C18        -0.7496    3.1091    1.2752 C.3       1 <0>        -0.1105
     27 C19        -1.4896    3.6159    0.0357 C.3       1 <0>        -0.0821
     28 C20        -0.7734    3.1225   -1.2231 C.3       1 <0>        -0.1119
     29 C21        -2.9250    3.0863    0.0466 C.3       1 <0>        -0.1243
     30 Br1       -14.9052   -1.8539    1.8130 Br        1 <0>        -0.0007
     31 H1        -16.3733    0.6051    6.7943 H         1 <0>         0.1420
     32 H2        -18.0068   -0.7533    5.5540 H         1 <0>         0.1421
     33 H3        -17.3797   -1.8062    3.4216 H         1 <0>         0.1457
     34 H4        -14.0984    0.9117    5.9121 H         1 <0>         0.1416
     35 H5         -9.1331    1.0400    1.2266 H         1 <0>         0.1394
     36 H6         -8.5911   -0.4109    2.1036 H         1 <0>         0.1394
     37 H7         -6.6842    0.3337    0.3510 H         1 <0>         0.4134
     38 H8         -4.5952    0.4914   -0.6790 H         1 <0>         0.3980
     39 H9         -2.7153    1.4241   -2.1037 H         1 <0>         0.0698
     40 H10        -2.1733   -0.0268   -1.2266 H         1 <0>         0.0697
     41 H11        -0.2425    1.2411   -2.1283 H         1 <0>         0.0764
     42 H12         0.0021   -0.0041    0.0020 H         1 <0>         0.0628
     43 H13         1.0099    1.4631    0.0003 H         1 <0>         0.0659
     44 H14        -0.2017    1.2182    2.1499 H         1 <0>         0.0734
     45 H15        -2.6744    1.4012    2.1745 H         1 <0>         0.0872
     46 H16        -2.1494   -0.0402    1.2717 H         1 <0>         0.0602
     47 H17        -1.2598    3.4606    2.1720 H         1 <0>         0.0659
     48 H18         0.2730    3.4864    1.2675 H         1 <0>         0.0636
     49 H19        -1.5044    4.7058    0.0417 H         1 <0>         0.0734
     50 H20         0.2491    3.4998   -1.2308 H         1 <0>         0.0659
     51 H21        -1.3006    3.4836   -2.1062 H         1 <0>         0.0628
     52 H22        -3.4522    3.4474   -0.8365 H         1 <0>         0.0602
     53 H23        -3.4352    3.4378    0.9434 H         1 <0>         0.0872
@<TRIPOS>BOND
     1    1    6 ar
     2    1    2 ar
     3    1   31 1
     4    2    3 ar
     5    2   32 1
     6    3    4 ar
     7    3   33 1
     8    4    5 ar
     9    4   30 1
    10    5    6 ar
    11    5    7 1
    12    6   34 1
    13    7   11 1
    14    7    8 2
    15    8    9 1
    16    9   10 2
    17   10   11 1
    18   10   12 1
    19   12   13 1
    20   13   14 1
    21   13   35 1
    22   13   36 1
    23   14   15 2
    24   14   16 am
    25   16   17 am
    26   16   37 1
    27   17   18 2
    28   17   19 am
    29   19   20 1
    30   19   38 1
    31   20   25 1
    32   20   29 1
    33   20   21 1
    34   21   22 1
    35   21   39 1
    36   21   40 1
    37   22   28 1
    38   22   23 1
    39   22   41 1
    40   23   24 1
    41   23   42 1
    42   23   43 1
    43   24   25 1
    44   24   26 1
    45   24   44 1
    46   25   45 1
    47   25   46 1
    48   26   27 1
    49   26   47 1
    50   26   48 1
    51   27   28 1
    52   27   29 1
    53   27   49 1
    54   28   50 1
    55   28   51 1
    56   29   52 1
    57   29   53 1
@<TRIPOS>MOLECULE
ZINC01065102
   53    56     0     0     0
SMALL
USER_CHARGES
(4S)-2-amino-4-(4-bromophenyl)-1-(4-fluoro-3-nitro-phenyl)-7,7-dimethyl-5-oxo-6,8-dihydro-4H-quinoline-3-carbonitrile
@<TRIPOS>ATOM
      1 C1         -6.8799   -0.0020   -1.4898 C.3       1 <0>        -0.1551
      2 C2         -6.3352    0.8225   -2.6579 C.3       1 <0>        -0.0528
      3 C3         -5.8471    2.1795   -2.1461 C.3       1 <0>        -0.0902
      4 C4         -4.7293    1.9738   -1.1535 C.2       1 <0>         0.2211
      5 C5         -3.8904    0.9217   -1.2599 C.2       1 <0>        -0.2419
      6 C6         -2.7607    0.7294   -0.2799 C.3       1 <0>         0.0962
      7 H1         -2.6913   -0.3265   -0.0185 H         1 <0>         0.0978
      8 C7         -2.9837    1.5315    0.9682 C.2       1 <0>        -0.2281
      9 C8         -3.8678    2.5624    0.9912 C.2       1 <0>         0.4740
     10 N1         -4.5831    2.8840   -0.1400 N.pl3     1 <0>        -0.4925
     11 C9         -5.1659    4.1523   -0.2560 C.ar      1 <0>         0.0953
     12 C10        -4.4746    5.1805   -0.8837 C.ar      1 <0>        -0.0192
     13 C11        -5.0512    6.4300   -0.9974 C.ar      1 <0>        -0.1397
     14 C12        -6.3178    6.6585   -0.4857 C.ar      1 <0>         0.1933
     15 C13        -7.0088    5.6347    0.1401 C.ar      1 <0>        -0.0749
     16 C14        -6.4379    4.3819    0.2513 C.ar      1 <0>        -0.0266
     17 N2         -8.3623    5.8817    0.6860 N.pl3     1 <0>         0.0249
     18 O1         -8.9706    4.9815    1.2366 O.2       1 <0>        -0.1422
     19 O2         -8.8678    6.9853    0.5848 O.3       1 <0>        -0.1315
     20 F1         -6.8799    7.8819   -0.5976 F         1 <0>        -0.0894
     21 N3         -4.0480    3.2859    2.1457 N.pl3     1 <0>        -0.8517
     22 C15        -2.2527    1.2043    2.1553 C.1       1 <0>         0.2678
     23 N4         -1.6728    0.9448    3.0971 N.1       1 <0>        -0.4370
     24 C16        -1.4692    1.1649   -0.9229 C.ar      1 <0>        -0.0522
     25 C17        -0.4467    0.2529   -1.1063 C.ar      1 <0>        -0.0936
     26 C18         0.7359    0.6506   -1.7012 C.ar      1 <0>        -0.0874
     27 C19         0.8980    1.9626   -2.1084 C.ar      1 <0>        -0.0920
     28 C20        -0.1235    2.8760   -1.9199 C.ar      1 <0>        -0.0936
     29 C21        -1.3057    2.4775   -1.3249 C.ar      1 <0>        -0.1024
     30 Br1         2.5153    2.5071   -2.9229 Br        1 <0>        -0.0532
     31 C22        -4.0432   -0.0263   -2.2864 C.2       1 <0>         0.4045
     32 O3         -3.2662   -0.9578   -2.3582 O.2       1 <0>        -0.4529
     33 C23        -5.1510    0.0898   -3.2971 C.3       1 <0>        -0.1501
     34 C24        -7.4379    1.0316   -3.6978 C.3       1 <0>        -0.1434
     35 H2         -7.7106    0.5299   -1.0258 H         1 <0>         0.0624
     36 H3         -7.2268   -0.9677   -1.8572 H         1 <0>         0.0672
     37 H4         -6.0905   -0.1554   -0.7540 H         1 <0>         0.0612
     38 H5         -6.6714    2.7024   -1.6612 H         1 <0>         0.0882
     39 H6         -5.4834    2.7740   -2.9842 H         1 <0>         0.1032
     40 H7         -3.4867    5.0029   -1.2822 H         1 <0>         0.1639
     41 H8         -4.5140    7.2298   -1.4855 H         1 <0>         0.1754
     42 H9         -6.9787    3.5827    0.7361 H         1 <0>         0.1731
     43 H10        -3.4787    3.1231    2.9140 H         1 <0>         0.4233
     44 H11        -4.7445    3.9594    2.1922 H         1 <0>         0.4019
     45 H12        -0.5735   -0.7715   -0.7887 H         1 <0>         0.1327
     46 H13         1.5333   -0.0629   -1.8479 H         1 <0>         0.1327
     47 H14         0.0025    3.9004   -2.2380 H         1 <0>         0.1294
     48 H15        -2.1033    3.1906   -1.1777 H         1 <0>         0.1171
     49 H16        -5.4407   -0.8222   -3.5874 H         1 <0>         0.0916
     50 H17        -4.7983    0.6518   -4.1619 H         1 <0>         0.1033
     51 H18        -7.0451    1.6129   -4.5320 H         1 <0>         0.0619
     52 H19        -7.7836    0.0635   -4.0605 H         1 <0>         0.0678
     53 H20        -8.2705    1.5672   -3.2418 H         1 <0>         0.0622
@<TRIPOS>BOND
     1    1    2 1
     2    1   35 1
     3    1   36 1
     4    1   37 1
     5    2   33 1
     6    2    3 1
     7    2   34 1
     8    3    4 1
     9    3   38 1
    10    3   39 1
    11    4   10 1
    12    4    5 2
    13    5    6 1
    14    5   31 1
    15    6    7 1
    16    6    8 1
    17    6   24 1
    18    8    9 2
    19    8   22 1
    20    9   10 1
    21    9   21 1
    22   10   11 1
    23   11   16 ar
    24   11   12 ar
    25   12   13 ar
    26   12   40 1
    27   13   14 ar
    28   13   41 1
    29   14   15 ar
    30   14   20 1
    31   15   16 ar
    32   15   17 1
    33   16   42 1
    34   17   18 2
    35   17   19 1
    36   21   43 1
    37   21   44 1
    38   22   23 3
    39   24   29 ar
    40   24   25 ar
    41   25   26 ar
    42   25   45 1
    43   26   27 ar
    44   26   46 1
    45   27   28 ar
    46   27   30 1
    47   28   29 ar
    48   28   47 1
    49   29   48 1
    50   31   32 2
    51   31   33 1
    52   33   49 1
    53   33   50 1
    54   34   51 1
    55   34   52 1
    56   34   53 1
@<TRIPOS>MOLECULE
ZINC20459039
   52    55     0     0     0
SMALL
USER_CHARGES
dimethyl (2E,5R)-7-amino-5-(2-fluorophenyl)-2-[(2-fluorophenyl)methylene]-3-oxo-5H-thiazolo[3,2-a]pyridine-6,8-dicarboxylate
@<TRIPOS>ATOM
      1 C1          4.7424   -5.4616   -3.9969 C.3       1 <0>         0.0310
      2 O1          3.7948   -4.5761   -3.3970 O.3       1 <0>        -0.3612
      3 C2          4.0409   -4.1827   -2.1298 C.2       1 <0>         0.5281
      4 O2          5.0342   -4.5817   -1.5507 O.2       1 <0>        -0.5006
      5 C3          3.1426   -3.3048   -1.4732 C.2       1 <0>        -0.2351
      6 C4          3.3639   -2.9819   -0.1395 C.2       1 <0>         0.2370
      7 N1          2.5556   -2.1440    0.5827 N.am      1 <0>        -0.5452
      8 C5          2.8724   -1.9062    1.8684 C.2       1 <0>         0.5440
      9 O3          2.1972   -1.1719    2.5657 O.2       1 <0>        -0.4399
     10 C6          4.0721   -2.5744    2.3912 C.2       1 <0>        -0.2660
     11 C7          4.6206   -2.5178    3.6321 C.2       1 <0>         0.0910
     12 C8          3.9160   -1.8200    4.7153 C.ar      1 <0>        -0.1334
     13 C9          2.5319   -1.9678    4.8649 C.ar      1 <0>        -0.0174
     14 C10         1.8783   -1.3101    5.8841 C.ar      1 <0>        -0.1354
     15 C11         2.5856   -0.5042    6.7608 C.ar      1 <0>        -0.0627
     16 C12         3.9531   -0.3509    6.6225 C.ar      1 <0>        -0.1642
     17 C13         4.6261   -1.0066    5.6093 C.ar      1 <0>         0.1342
     18 F1          5.9628   -0.8609    5.4781 F         1 <0>        -0.1310
     19 S1          4.6123   -3.4797    0.9519 S.3       1 <0>         0.1936
     20 C14         1.3843   -1.5612   -0.1219 C.3       1 <0>         0.2764
     21 H1          0.5384   -2.0289    0.4032 H         1 <0>         0.0968
     22 C15         1.1336   -1.9026   -1.5655 C.2       1 <0>        -0.4051
     23 C16         2.0066   -2.7610   -2.2160 C.2       1 <0>         0.4062
     24 N2          1.8073   -3.0956   -3.5373 N.pl3     1 <0>        -0.8173
     25 C17         0.0355   -1.3623   -2.2413 C.2       1 <0>         0.5456
     26 O4         -0.2181   -1.7226   -3.3778 O.2       1 <0>        -0.5572
     27 O5         -0.7447   -0.4407   -1.6346 O.3       1 <0>        -0.3472
     28 C18        -1.8497    0.0686   -2.3841 C.3       1 <0>         0.0336
     29 C19         1.5041   -0.0618   -0.0288 C.ar      1 <0>        -0.1180
     30 C20         0.4804    0.6801    0.5297 C.ar      1 <0>        -0.0371
     31 C21         0.5899    2.0554    0.6152 C.ar      1 <0>        -0.1324
     32 C22         1.7238    2.6903    0.1431 C.ar      1 <0>        -0.0848
     33 C23         2.7485    1.9506   -0.4157 C.ar      1 <0>        -0.1607
     34 C24         2.6397    0.5728   -0.5023 C.ar      1 <0>         0.1113
     35 F2          3.6411   -0.1514   -1.0480 F         1 <0>        -0.1382
     36 H2          4.4229   -5.7007   -5.0220 H         1 <0>         0.1081
     37 H3          4.8037   -6.3877   -3.4065 H         1 <0>         0.0686
     38 H4          5.7300   -4.9780   -4.0240 H         1 <0>         0.0679
     39 H5          5.5927   -2.9946    3.8260 H         1 <0>         0.1669
     40 H6          1.9777   -2.5955    4.1828 H         1 <0>         0.1316
     41 H7          0.8106   -1.4237    6.0001 H         1 <0>         0.1346
     42 H8          2.0660    0.0080    7.5571 H         1 <0>         0.1372
     43 H9          4.4969    0.2797    7.3103 H         1 <0>         0.1414
     44 H10         0.9493   -2.6805   -4.0864 H         1 <0>         0.4447
     45 H11         2.5062   -3.7779   -4.0433 H         1 <0>         0.4221
     46 H12        -2.3966    0.8047   -1.7766 H         1 <0>         0.0979
     47 H13        -2.5234   -0.7587   -2.6521 H         1 <0>         0.0581
     48 H14        -1.4797    0.5517   -3.3004 H         1 <0>         0.0570
     49 H15        -0.4056    0.1852    0.8991 H         1 <0>         0.1323
     50 H16        -0.2106    2.6344    1.0514 H         1 <0>         0.1295
     51 H17         1.8087    3.7648    0.2111 H         1 <0>         0.1310
     52 H18         3.6359    2.4464   -0.7806 H         1 <0>         0.1327
@<TRIPOS>BOND
     1    1    2 1
     2    1   36 1
     3    1   37 1
     4    1   38 1
     5    2    3 1
     6    3    4 2
     7    3    5 1
     8    5   23 1
     9    5    6 2
    10    6   19 1
    11    6    7 1
    12    7    8 am
    13    7   20 1
    14    8    9 2
    15    8   10 1
    16   10   11 2
    17   10   19 1
    18   11   12 1
    19   11   39 1
    20   12   17 ar
    21   12   13 ar
    22   13   14 ar
    23   13   40 1
    24   14   15 ar
    25   14   41 1
    26   15   16 ar
    27   15   42 1
    28   16   17 ar
    29   16   43 1
    30   17   18 1
    31   20   21 1
    32   20   22 1
    33   20   29 1
    34   22   23 2
    35   22   25 1
    36   23   24 1
    37   24   44 1
    38   24   45 1
    39   25   26 2
    40   25   27 1
    41   27   28 1
    42   28   46 1
    43   28   47 1
    44   28   48 1
    45   29   34 ar
    46   29   30 ar
    47   30   31 ar
    48   30   49 1
    49   31   32 ar
    50   31   50 1
    51   32   33 ar
    52   32   51 1
    53   33   34 ar
    54   33   52 1
    55   34   35 1
@<TRIPOS>MOLECULE
ZINC34979902
   78    82     0     0     0
SMALL
USER_CHARGES

@<TRIPOS>ATOM
      1 C1          0.1991    1.6143    0.4788 C.3       1 <0>        -0.1517
      2 C2          0.1167    0.0914    0.3565 C.3       1 <0>        -0.1169
      3 C3         -1.3377   -0.3236    0.1250 C.3       1 <0>        -0.0957
      4 H1         -1.9625    0.0829    0.9203 H         1 <0>         0.0917
      5 C4         -1.8138    0.2172   -1.2246 C.3       1 <0>        -0.1614
      6 C5         -1.4388   -1.8503    0.1270 C.3       1 <0>         0.1520
      7 H2         -2.4579   -2.1472   -0.1206 H         1 <0>         0.1101
      8 C6         -0.4877   -2.4181   -0.8948 C.2       1 <0>         0.5224
      9 O1          0.6200   -2.7789   -0.5576 O.2       1 <0>        -0.5302
     10 N1         -0.8681   -2.5250   -2.1833 N.am      1 <0>        -0.6043
     11 C7         -2.2351   -2.1717   -2.5914 C.3       1 <0>         0.0839
     12 C8         -2.8559   -3.3724   -3.3161 C.3       1 <0>         0.0942
     13 N2         -1.9110   -3.8437   -4.3384 N.am      1 <0>        -0.6036
     14 C9         -0.5441   -4.1970   -3.9303 C.3       1 <0>         0.1070
     15 H3          0.0497   -4.4393   -4.8116 H         1 <0>         0.1174
     16 C10         0.0784   -2.9910   -3.2065 C.3       1 <0>         0.1031
     17 C11        -0.5844   -5.4038   -2.9906 C.3       1 <0>        -0.1632
     18 C12        -2.2914   -3.9506   -5.6269 C.2       1 <0>         0.5644
     19 O2         -3.3888   -3.5572   -5.9712 O.2       1 <0>        -0.5285
     20 C13        -1.3740   -4.5462   -6.6216 C.ar      1 <0>        -0.1339
     21 C14        -0.5698   -5.6320   -6.2715 C.ar      1 <0>        -0.0992
     22 C15         0.2838   -6.1834   -7.2045 C.ar      1 <0>        -0.1254
     23 C16         0.3440   -5.6622   -8.4848 C.ar      1 <0>        -0.0943
     24 C17        -0.4501   -4.5858   -8.8382 C.ar      1 <0>        -0.1236
     25 C18        -1.3125   -4.0290   -7.9165 C.ar      1 <0>        -0.0643
     26 N3         -1.0905   -2.3610    1.4552 N.am      1 <0>        -0.7324
     27 C19        -2.0297   -2.4265    2.4196 C.2       1 <0>         0.7113
     28 O3         -3.1660   -2.0618    2.1874 O.2       1 <0>        -0.5822
     29 N4         -1.7092   -2.8964    3.6415 N.am      1 <0>        -0.7390
     30 C20        -2.7301   -2.9676    4.6898 C.3       1 <0>         0.2036
     31 C21        -3.2775   -1.5656    4.9648 C.3       1 <0>        -0.1214
     32 C22        -4.3436   -1.6399    6.0596 C.3       1 <0>        -0.0825
     33 C23        -3.7227   -2.2049    7.3387 C.3       1 <0>        -0.1116
     34 C24        -3.1754   -3.6070    7.0637 C.3       1 <0>        -0.0799
     35 C25        -2.1092   -3.5326    5.9689 C.3       1 <0>        -0.1151
     36 C26        -4.3152   -4.5184    6.6045 C.3       1 <0>        -0.1116
     37 C27        -4.9362   -3.9534    5.3254 C.3       1 <0>        -0.0826
     38 C28        -5.4835   -2.5514    5.6004 C.3       1 <0>        -0.1088
     39 C29        -3.8700   -3.8790    4.2306 C.3       1 <0>        -0.1216
     40 H4          1.2352    1.9100    0.6437 H         1 <0>         0.0539
     41 H5         -0.1680    2.0730   -0.4393 H         1 <0>         0.0561
     42 H6         -0.4112    1.9448    1.3193 H         1 <0>         0.0537
     43 H7          0.7270   -0.2391   -0.4840 H         1 <0>         0.0616
     44 H8          0.4837   -0.3672    1.2746 H         1 <0>         0.0638
     45 H9         -1.1281   -0.1059   -2.0079 H         1 <0>         0.0602
     46 H10        -2.8129   -0.1635   -1.4366 H         1 <0>         0.0637
     47 H11        -1.8396    1.3064   -1.1909 H         1 <0>         0.0670
     48 H12        -2.8289   -1.9294   -1.7101 H         1 <0>         0.1063
     49 H13        -2.2061   -1.3139   -3.2632 H         1 <0>         0.0851
     50 H14        -3.0494   -4.1715   -2.6006 H         1 <0>         0.0760
     51 H15        -3.7888   -3.0701   -3.7919 H         1 <0>         0.1098
     52 H16         0.2682   -2.1901   -3.9211 H         1 <0>         0.0766
     53 H17         1.0128   -3.2899   -2.7314 H         1 <0>         0.1088
     54 H18        -1.0387   -6.2502   -3.5056 H         1 <0>         0.0635
     55 H19         0.4304   -5.6638   -2.6894 H         1 <0>         0.0750
     56 H20        -1.1736   -5.1571   -2.1074 H         1 <0>         0.0627
     57 H21        -0.6154   -6.0393   -5.2722 H         1 <0>         0.1351
     58 H22         0.9066   -7.0235   -6.9349 H         1 <0>         0.1304
     59 H23         1.0142   -6.0974   -9.2113 H         1 <0>         0.1287
     60 H24        -0.3981   -4.1834   -9.8391 H         1 <0>         0.1312
     61 H25        -1.9355   -3.1918   -8.1950 H         1 <0>         0.1321
     62 H26        -0.1839   -2.6520    1.6405 H         1 <0>         0.4044
     63 H27        -0.8027   -3.1874    3.8268 H         1 <0>         0.3950
     64 H28        -2.4654   -0.9162    5.2920 H         1 <0>         0.0574
     65 H29        -3.7198   -1.1631    4.0535 H         1 <0>         0.0878
     66 H30        -4.7336   -0.6411    6.2555 H         1 <0>         0.0715
     67 H31        -2.9106   -1.5556    7.6659 H         1 <0>         0.0620
     68 H32        -4.4822   -2.2579    8.1187 H         1 <0>         0.0646
     69 H33        -2.7330   -4.0095    7.9750 H         1 <0>         0.0747
     70 H34        -1.7192   -4.5314    5.7730 H         1 <0>         0.0678
     71 H35        -1.2971   -2.8833    6.2961 H         1 <0>         0.0680
     72 H36        -3.9253   -5.5172    6.4086 H         1 <0>         0.0619
     73 H37        -5.0748   -4.5714    7.3844 H         1 <0>         0.0646
     74 H38        -5.7482   -4.6027    4.9982 H         1 <0>         0.0714
     75 H39        -6.2431   -2.6043    6.3803 H         1 <0>         0.0619
     76 H40        -5.9259   -2.1489    4.6891 H         1 <0>         0.0649
     77 H41        -4.3124   -3.4765    3.3193 H         1 <0>         0.0875
     78 H42        -3.4801   -4.8779    4.0347 H         1 <0>         0.0570
@<TRIPOS>BOND
     1    1    2 1
     2    1   40 1
     3    1   41 1
     4    1   42 1
     5    2    3 1
     6    2   43 1
     7    2   44 1
     8    3    4 1
     9    3    5 1
    10    3    6 1
    11    5   45 1
    12    5   46 1
    13    5   47 1
    14    6    7 1
    15    6    8 1
    16    6   26 1
    17    8    9 2
    18    8   10 am
    19   10   16 1
    20   10   11 1
    21   11   12 1
    22   11   48 1
    23   11   49 1
    24   12   13 1
    25   12   50 1
    26   12   51 1
    27   13   14 1
    28   13   18 am
    29   14   15 1
    30   14   16 1
    31   14   17 1
    32   16   52 1
    33   16   53 1
    34   17   54 1
    35   17   55 1
    36   17   56 1
    37   18   19 2
    38   18   20 1
    39   20   25 ar
    40   20   21 ar
    41   21   22 ar
    42   21   57 1
    43   22   23 ar
    44   22   58 1
    45   23   24 ar
    46   23   59 1
    47   24   25 ar
    48   24   60 1
    49   25   61 1
    50   26   27 am
    51   26   62 1
    52   27   28 2
    53   27   29 am
    54   29   30 1
    55   29   63 1
    56   30   35 1
    57   30   39 1
    58   30   31 1
    59   31   32 1
    60   31   64 1
    61   31   65 1
    62   32   38 1
    63   32   33 1
    64   32   66 1
    65   33   34 1
    66   33   67 1
    67   33   68 1
    68   34   35 1
    69   34   36 1
    70   34   69 1
    71   35   70 1
    72   35   71 1
    73   36   37 1
    74   36   72 1
    75   36   73 1
    76   37   38 1
    77   37   39 1
    78   37   74 1
    79   38   75 1
    80   38   76 1
    81   39   77 1
    82   39   78 1
@<TRIPOS>MOLECULE
ZINC18196881
   55    60     0     0     0
SMALL
USER_CHARGES

@<TRIPOS>ATOM
      1 C1         -0.0167    1.3786    0.0096 C.ar      1 <0>        -0.1368
      2 C2          1.1696    2.0893    0.0021 C.ar      1 <0>        -0.0882
      3 C3          2.3774    1.4197   -0.0134 C.ar      1 <0>        -0.1620
      4 C4          2.3997    0.0310   -0.0211 C.ar      1 <0>         0.1655
      5 C5          1.2065   -0.6798   -0.0130 C.ar      1 <0>        -0.1379
      6 C6          0.0021   -0.0041    0.0020 C.ar      1 <0>        -0.0833
      7 N1          3.6210   -0.6501   -0.0373 N.am      1 <0>        -0.3485
      8 C7          3.7818   -1.9916   -0.0515 C.2       1 <0>         0.5609
      9 O1          2.8889   -2.8215   -0.0525 O.2       1 <0>        -0.5146
     10 C8          5.1512   -2.2583   -0.0657 C.2       1 <0>        -0.3473
     11 C9          5.8184   -1.0590   -0.0574 C.2       1 <0>         0.4261
     12 N2          4.8951   -0.0596   -0.0477 N.pl3     1 <0>        -0.4870
     13 H1          5.0836    0.8920   -0.0462 H         1 <0>         0.4454
     14 N3          7.1912   -1.0024   -0.0613 N.pl3     1 <0>        -0.6212
     15 C10         7.9013   -2.1451    0.2265 C.2       1 <0>         0.2282
     16 C11         7.3310   -3.3669    0.2356 C.2       1 <0>        -0.2559
     17 C12         5.8678   -3.5793   -0.0892 C.3       1 <0>         0.1202
     18 H2          5.4248   -4.2460    0.6505 H         1 <0>         0.1010
     19 C13         5.7416   -4.1947   -1.4590 C.ar      1 <0>        -0.0604
     20 C14         6.2397   -3.5298   -2.5642 C.ar      1 <0>        -0.0595
     21 C15         6.1239   -4.0942   -3.8205 C.ar      1 <0>        -0.1211
     22 C16         5.5103   -5.3238   -3.9720 C.ar      1 <0>        -0.0602
     23 C17         5.0131   -5.9889   -2.8671 C.ar      1 <0>        -0.0466
     24 C18         5.1328   -5.4263   -1.6099 C.ar      1 <0>        -0.0266
     25 N4          4.3558   -7.3051   -3.0294 N.pl3     1 <0>         0.0344
     26 O2          4.2537   -7.7985   -4.1285 O.2       1 <0>        -0.1640
     27 O3          3.9209   -7.8869   -2.0630 O.3       1 <0>        -0.1533
     28 C19         8.0831   -4.5140    0.5554 C.2       1 <0>         0.4016
     29 O4          7.5416   -5.6017    0.5400 O.2       1 <0>        -0.4487
     30 C20         9.5396   -4.4244    0.9150 C.3       1 <0>        -0.1630
     31 C21         9.8156   -3.0486    1.5309 C.3       1 <0>         0.0124
     32 H3          9.2531   -2.9417    2.4583 H         1 <0>         0.1078
     33 C22         9.3724   -1.9776    0.5328 C.3       1 <0>        -0.0932
     34 C23        11.2893   -2.9039    1.8112 C.2       1 <0>        -0.1496
     35 C24        11.9164   -2.6918    2.9940 C.2       1 <0>        -0.1434
     36 C25        13.2948   -2.5917    3.0134 C.2       1 <0>        -0.1590
     37 C26        13.9788   -2.7086    1.8490 C.2       1 <0>        -0.1651
     38 S1         12.6626   -2.9755    0.6728 S.3       1 <0>         0.0404
     39 H4         -0.9598    1.9046    0.0260 H         1 <0>         0.1291
     40 H5          1.1515    3.1691    0.0080 H         1 <0>         0.1306
     41 H6          3.3034    1.9753   -0.0200 H         1 <0>         0.1180
     42 H7          1.2204   -1.7597   -0.0193 H         1 <0>         0.1596
     43 H8         -0.9261   -0.5562    0.0082 H         1 <0>         0.1352
     44 H9          7.6511   -0.1726   -0.2635 H         1 <0>         0.4237
     45 H10         6.7190   -2.5692   -2.4458 H         1 <0>         0.1284
     46 H11         6.5124   -3.5745   -4.6838 H         1 <0>         0.1439
     47 H12         5.4192   -5.7645   -4.9538 H         1 <0>         0.1512
     48 H13         4.7476   -5.9477   -0.7461 H         1 <0>         0.1540
     49 H14         9.7860   -5.2034    1.6365 H         1 <0>         0.1076
     50 H15        10.1455   -4.5508    0.0177 H         1 <0>         0.1061
     51 H16         9.9483   -2.0789   -0.3871 H         1 <0>         0.1072
     52 H17         9.5436   -0.9897    0.9605 H         1 <0>         0.1003
     53 H18        11.3474   -2.6019    3.9076 H         1 <0>         0.1347
     54 H19        13.8191   -2.4224    3.9423 H         1 <0>         0.1359
     55 H20        15.0440   -2.6577    1.6778 H         1 <0>         0.1871
@<TRIPOS>BOND
     1    1    6 ar
     2    1    2 ar
     3    1   39 1
     4    2    3 ar
     5    2   40 1
     6    3    4 ar
     7    3   41 1
     8    4    5 ar
     9    4    7 1
    10    5    6 ar
    11    5   42 1
    12    6   43 1
    13    7   12 1
    14    7    8 am
    15    8    9 2
    16    8   10 1
    17   10   17 1
    18   10   11 2
    19   11   12 1
    20   11   14 1
    21   12   13 1
    22   14   15 1
    23   14   44 1
    24   15   33 1
    25   15   16 2
    26   16   17 1
    27   16   28 1
    28   17   18 1
    29   17   19 1
    30   19   24 ar
    31   19   20 ar
    32   20   21 ar
    33   20   45 1
    34   21   22 ar
    35   21   46 1
    36   22   23 ar
    37   22   47 1
    38   23   24 ar
    39   23   25 1
    40   24   48 1
    41   25   26 2
    42   25   27 1
    43   28   29 2
    44   28   30 1
    45   30   31 1
    46   30   49 1
    47   30   50 1
    48   31   32 1
    49   31   33 1
    50   31   34 1
    51   33   51 1
    52   33   52 1
    53   34   38 1
    54   34   35 2
    55   35   36 1
    56   35   53 1
    57   36   37 2
    58   36   54 1
    59   37   38 1
    60   37   55 1
@<TRIPOS>MOLECULE
ZINC02677912
   54    57     0     0     0
SMALL
USER_CHARGES
4-chloro-N-[2-[5-(4-chlorophenyl)-2-furyl]-1-[(1,1-dioxothiolan-3-yl)carbamoyl]vinyl]-benzamide
@<TRIPOS>ATOM
      1 C1         -7.1321   10.0094   -5.8911 C.ar      1 <0>        -0.0807
      2 C2         -8.2852   10.7401   -6.0862 C.ar      1 <0>        -0.1040
      3 C3         -9.3603   10.5856   -5.2267 C.ar      1 <0>        -0.0256
      4 C4         -9.2876    9.6925   -4.1705 C.ar      1 <0>        -0.1044
      5 C5         -8.1427    8.9513   -3.9680 C.ar      1 <0>        -0.0896
      6 C6         -7.0544    9.1026   -4.8310 C.ar      1 <0>        -0.0196
      7 C7         -5.8260    8.3125   -4.6203 C.2       1 <0>         0.0480
      8 C8         -4.6653    8.4421   -5.3281 C.2       1 <0>        -0.1844
      9 C9         -3.7586    7.5146   -4.8061 C.2       1 <0>        -0.1527
     10 C10        -4.4159    6.8417   -3.7934 C.2       1 <0>         0.0039
     11 O1         -5.6642    7.3455   -3.6985 O.3       1 <0>        -0.1622
     12 C11        -3.8735    5.8102   -2.9930 C.2       1 <0>        -0.0477
     13 C12        -4.6633    5.1571   -2.0972 C.2       1 <0>         0.0871
     14 C13        -4.0798    4.1595   -1.1972 C.2       1 <0>         0.5572
     15 O2         -4.7649    3.6458   -0.3318 O.2       1 <0>        -0.5074
     16 N1         -2.7846    3.8104   -1.3272 N.am      1 <0>        -0.7146
     17 C14        -2.2010    2.8126   -0.4271 C.3       1 <0>         0.1490
     18 H1         -2.9499    2.0568   -0.1906 H         1 <0>         0.1156
     19 C15        -1.7444    3.5005    0.8702 C.3       1 <0>        -0.1464
     20 C16        -0.8566    2.4986    1.6645 C.3       1 <0>        -0.5694
     21 S1          0.1213    1.7549    0.2913 S.o2      1 <0>         2.3778
     22 O3          0.1721    0.3461    0.4701 O.2       1 <0>        -0.9296
     23 O4          1.3311    2.4843    0.1376 O.2       1 <0>        -0.9289
     24 C17        -0.9925    2.1391   -1.1208 C.3       1 <0>        -0.5993
     25 N2         -6.0325    5.4386   -2.0361 N.am      1 <0>        -0.6587
     26 C18        -6.9322    4.4526   -2.2227 C.2       1 <0>         0.5714
     27 O5         -6.5571    3.3373   -2.5293 O.2       1 <0>        -0.5043
     28 C19        -8.3743    4.7269   -2.0548 C.ar      1 <0>        -0.1274
     29 C20        -8.8143    6.0243   -1.7849 C.ar      1 <0>        -0.0754
     30 C21       -10.1619    6.2751   -1.6349 C.ar      1 <0>        -0.1161
     31 C22       -11.0775    5.2411   -1.7406 C.ar      1 <0>        -0.0080
     32 C23       -10.6467    3.9509   -2.0021 C.ar      1 <0>        -0.1147
     33 C24        -9.3021    3.6887   -2.1597 C.ar      1 <0>        -0.0417
     34 Cl1       -12.7720    5.5635   -1.5439 Cl        1 <0>        -0.0558
     35 Cl2       -10.8054   11.5151   -5.4747 Cl        1 <0>        -0.0588
     36 H2         -6.2926   10.1346   -6.5589 H         1 <0>         0.1406
     37 H3         -8.3483   11.4379   -6.9081 H         1 <0>         0.1430
     38 H4        -10.1297    9.5762   -3.5043 H         1 <0>         0.1407
     39 H5         -8.0874    8.2550   -3.1443 H         1 <0>         0.1329
     40 H6         -4.4808    9.1344   -6.1363 H         1 <0>         0.1592
     41 H7         -2.7418    7.3536   -5.1325 H         1 <0>         0.1626
     42 H8         -2.8324    5.5405   -3.0923 H         1 <0>         0.1669
     43 H9         -2.2387    4.2197   -2.0167 H         1 <0>         0.4039
     44 H10        -1.1665    4.3929    0.6300 H         1 <0>         0.0936
     45 H11        -2.6141    3.7748    1.4672 H         1 <0>         0.1082
     46 H12        -1.4645    1.7466    2.1677 H         1 <0>         0.1437
     47 H13        -0.2105    3.0182    2.3721 H         1 <0>         0.1464
     48 H14        -0.5122    2.8282   -1.8155 H         1 <0>         0.1464
     49 H15        -1.2992    1.2258   -1.6307 H         1 <0>         0.1518
     50 H16        -6.3342    6.3434   -1.8594 H         1 <0>         0.4114
     51 H17        -8.1009    6.8305   -1.6982 H         1 <0>         0.1311
     52 H18       -10.5038    7.2789   -1.4305 H         1 <0>         0.1425
     53 H19       -11.3653    3.1488   -2.0830 H         1 <0>         0.1446
     54 H20        -8.9674    2.6824   -2.3636 H         1 <0>         0.1480
@<TRIPOS>BOND
     1    1    6 ar
     2    1    2 ar
     3    1   36 1
     4    2    3 ar
     5    2   37 1
     6    3    4 ar
     7    3   35 1
     8    4    5 ar
     9    4   38 1
    10    5    6 ar
    11    5   39 1
    12    6    7 1
    13    7   11 1
    14    7    8 2
    15    8    9 1
    16    8   40 1
    17    9   10 2
    18    9   41 1
    19   10   11 1
    20   10   12 1
    21   12   13 2
    22   12   42 1
    23   13   14 1
    24   13   25 1
    25   14   15 2
    26   14   16 am
    27   16   17 1
    28   16   43 1
    29   17   18 1
    30   17   24 1
    31   17   19 1
    32   19   20 1
    33   19   44 1
    34   19   45 1
    35   20   21 1
    36   20   46 1
    37   20   47 1
    38   21   22 2
    39   21   23 2
    40   21   24 1
    41   24   48 1
    42   24   49 1
    43   25   26 am
    44   25   50 1
    45   26   27 2
    46   26   28 1
    47   28   33 ar
    48   28   29 ar
    49   29   30 ar
    50   29   51 1
    51   30   31 ar
    52   30   52 1
    53   31   32 ar
    54   31   34 1
    55   32   33 ar
    56   32   53 1
    57   33   54 1
@<TRIPOS>MOLECULE
ZINC10785856
   61    64     0     0     0
SMALL
USER_CHARGES
methyl [6-methyl-2-[[1-(2-thienylsulfonyl)-2-piperidyl]carbonylamino]-4,5,6,7-tetrahydrobenzothiophen-3-yl]carbonylaminoformate
@<TRIPOS>ATOM
      1 C1          6.3034   -6.4131    3.2385 C.3       1 <0>        -0.1478
      2 C2          5.2569   -6.3986    2.1225 C.3       1 <0>        -0.0866
      3 H1          4.6204   -7.2794    2.2071 H         1 <0>         0.0766
      4 C3          5.9581   -6.4007    0.7611 C.3       1 <0>        -0.1133
      5 C4          4.9346   -6.6381   -0.3507 C.3       1 <0>        -0.0641
      6 C5          3.7973   -5.6365   -0.1921 C.2       1 <0>        -0.0614
      7 C6          3.5979   -4.9898    0.9766 C.2       1 <0>        -0.2125
      8 S1          2.1973   -3.9472    0.6841 S.3       1 <0>         0.2594
      9 C7          1.8729   -4.3701   -0.9645 C.2       1 <0>         0.1004
     10 C8          2.8606   -5.3027   -1.2519 C.2       1 <0>        -0.2419
     11 C9          2.9547   -5.9271   -2.5738 C.2       1 <0>         0.5921
     12 O1          3.6324   -5.4119   -3.4432 O.2       1 <0>        -0.4516
     13 N1          2.2906   -7.0723   -2.8270 N.am      1 <0>        -0.6570
     14 C10         2.3772   -7.6467   -4.0431 C.2       1 <0>         0.6385
     15 O2          3.0537   -7.1324   -4.9111 O.2       1 <0>        -0.5068
     16 O3          1.7139   -8.7904   -4.2960 O.3       1 <0>        -0.3648
     17 C11         1.8531   -9.3526   -5.6275 C.3       1 <0>         0.0530
     18 N2          0.8736   -3.8895   -1.7964 N.am      1 <0>        -0.6013
     19 C12        -0.0046   -2.9762   -1.3368 C.2       1 <0>         0.5186
     20 O4          0.0795   -2.5748   -0.1955 O.2       1 <0>        -0.4918
     21 C13        -1.0909   -2.4538   -2.2413 C.3       1 <0>         0.1476
     22 H2         -1.0466   -2.9688   -3.2009 H         1 <0>         0.1047
     23 C14        -0.9024   -0.9484   -2.4538 C.3       1 <0>        -0.1244
     24 C15        -2.0837   -0.3989   -3.2568 C.3       1 <0>        -0.1154
     25 C16        -3.3805   -0.6175   -2.4742 C.3       1 <0>        -0.1386
     26 C17        -3.5977   -2.1239   -2.2649 C.3       1 <0>         0.1200
     27 N3         -2.4022   -2.6830   -1.6193 N.pl3     1 <0>        -0.9856
     28 S2         -2.5309   -3.5608   -0.2210 S.o2      1 <0>         2.7256
     29 O5         -1.3761   -4.3860   -0.1517 O.2       1 <0>        -0.9403
     30 O6         -3.8489   -4.0913   -0.1944 O.2       1 <0>        -0.9467
     31 C18        -2.4186   -2.4237    1.1202 C.2       1 <0>        -0.7691
     32 C19        -3.4096   -1.7482    1.7519 C.2       1 <0>        -0.0165
     33 C20        -3.0839   -0.8978    2.7918 C.2       1 <0>        -0.1972
     34 C21        -1.7832   -0.7645    3.1492 C.2       1 <0>        -0.1720
     35 S3         -0.9700   -1.8616    1.9993 S.3       1 <0>         0.2680
     36 C22         4.3981   -5.1305    2.2347 C.3       1 <0>        -0.0301
     37 H3          6.9357   -5.5291    3.1552 H         1 <0>         0.0570
     38 H4          5.8024   -6.4115    4.2065 H         1 <0>         0.0577
     39 H5          6.9178   -7.3089    3.1488 H         1 <0>         0.0582
     40 H6          6.7059   -7.1935    0.7402 H         1 <0>         0.0708
     41 H7          6.4470   -5.4392    0.6041 H         1 <0>         0.0681
     42 H8          4.5418   -7.6520   -0.2754 H         1 <0>         0.0774
     43 H9          5.4108   -6.4995   -1.3214 H         1 <0>         0.0751
     44 H10         1.7504   -7.4830   -2.1340 H         1 <0>         0.4233
     45 H11         2.9028   -9.5739   -5.8205 H         1 <0>         0.0679
     46 H12         1.2695  -10.2705   -5.6972 H         1 <0>         0.1094
     47 H13         1.4916   -8.6353   -6.3643 H         1 <0>         0.0674
     48 H14         0.8064   -4.2105   -2.7092 H         1 <0>         0.4185
     49 H15        -0.8554   -0.4476   -1.4868 H         1 <0>         0.0861
     50 H16         0.0234   -0.7714   -3.0012 H         1 <0>         0.0840
     51 H17        -1.9398    0.6675   -3.4306 H         1 <0>         0.0758
     52 H18        -2.1450   -0.9175   -4.2136 H         1 <0>         0.0701
     53 H19        -3.3101   -0.1198   -1.5071 H         1 <0>         0.0717
     54 H20        -4.2184   -0.2044   -3.0359 H         1 <0>         0.0823
     55 H21        -3.7545   -2.6105   -3.2276 H         1 <0>         0.0834
     56 H22        -4.4665   -2.2840   -1.6264 H         1 <0>         0.0972
     57 H23        -4.4377   -1.8692    1.4443 H         1 <0>         0.1391
     58 H24        -3.8543   -0.3476    3.3116 H         1 <0>         0.1373
     59 H25        -1.3509   -0.1528    3.9272 H         1 <0>         0.1896
     60 H26         3.7268   -5.2160    3.0892 H         1 <0>         0.0815
     61 H27         5.0427   -4.2604    2.3599 H         1 <0>         0.0832
@<TRIPOS>BOND
     1    1    2 1
     2    1   37 1
     3    1   38 1
     4    1   39 1
     5    2    3 1
     6    2   36 1
     7    2    4 1
     8    4    5 1
     9    4   40 1
    10    4   41 1
    11    5    6 1
    12    5   42 1
    13    5   43 1
    14    6   10 1
    15    6    7 2
    16    7    8 1
    17    7   36 1
    18    8    9 1
    19    9   10 2
    20    9   18 1
    21   10   11 1
    22   11   12 2
    23   11   13 am
    24   13   14 am
    25   13   44 1
    26   14   15 2
    27   14   16 1
    28   16   17 1
    29   17   45 1
    30   17   46 1
    31   17   47 1
    32   18   19 am
    33   18   48 1
    34   19   20 2
    35   19   21 1
    36   21   22 1
    37   21   27 1
    38   21   23 1
    39   23   24 1
    40   23   49 1
    41   23   50 1
    42   24   25 1
    43   24   51 1
    44   24   52 1
    45   25   26 1
    46   25   53 1
    47   25   54 1
    48   26   27 1
    49   26   55 1
    50   26   56 1
    51   27   28 1
    52   28   29 2
    53   28   30 2
    54   28   31 1
    55   31   35 1
    56   31   32 2
    57   32   33 1
    58   32   57 1
    59   33   34 2
    60   33   58 1
    61   34   35 1
    62   34   59 1
    63   36   60 1
    64   36   61 1
@<TRIPOS>MOLECULE
ZINC21595749
   60    64     0     0     0
SMALL
USER_CHARGES
N-[[4-[4-(4-methylbenzoyl)piperazin-1-yl]phenyl]carbamothioyl]-2,1,3-benzothiadiazole-5-carboxamide
@<TRIPOS>ATOM
      1 C1         -4.2079   17.7074   -5.4796 C.3       1 <0>        -0.1240
      2 C2         -3.2119   17.0736   -4.5429 C.ar      1 <0>        -0.0587
      3 C3         -1.9248   17.5750   -4.4641 C.ar      1 <0>        -0.1263
      4 C4         -1.0082   16.9994   -3.6086 C.ar      1 <0>        -0.0586
      5 C5         -1.3819   15.9091   -2.8213 C.ar      1 <0>        -0.1411
      6 C6         -2.6806   15.4051   -2.9093 C.ar      1 <0>        -0.0900
      7 C7         -3.5888   15.9931   -3.7652 C.ar      1 <0>        -0.1282
      8 C8         -0.4047   15.2869   -1.9028 C.2       1 <0>         0.5640
      9 O1          0.4249   15.9752   -1.3410 O.2       1 <0>        -0.5335
     10 N1         -0.4337   13.9567   -1.6883 N.am      1 <0>        -0.6112
     11 C9          0.4491   13.3335   -0.6905 C.3       1 <0>         0.1132
     12 C10         1.1855   12.1650   -1.3543 C.3       1 <0>         0.0351
     13 N2          0.2061   11.2591   -1.9693 N.pl3     1 <0>        -0.4862
     14 C11        -0.5421   11.9309   -3.0402 C.3       1 <0>         0.0410
     15 C12        -1.3493   13.0897   -2.4456 C.3       1 <0>         0.0943
     16 C13         0.8258   10.0976   -2.4430 C.ar      1 <0>         0.1222
     17 C14         0.0701    9.1099   -3.0612 C.ar      1 <0>        -0.1341
     18 C15         0.6818    7.9639   -3.5290 C.ar      1 <0>        -0.0417
     19 C16         2.0526    7.7990   -3.3815 C.ar      1 <0>         0.0922
     20 C17         2.8076    8.7840   -2.7588 C.ar      1 <0>        -0.0885
     21 C18         2.1969    9.9324   -2.2956 C.ar      1 <0>        -0.1690
     22 N3          2.6733    6.6357   -3.8559 N.pl3     1 <0>        -0.6283
     23 C19         2.3690    6.1608   -5.0800 C.2       1 <0>         0.5216
     24 S1          1.1447    6.9136   -6.0102 S.2       1 <0>        -0.5039
     25 N4          3.0286    5.0934   -5.5718 N.am      1 <0>        -0.6528
     26 C20         2.7243    4.6185   -6.7959 C.2       1 <0>         0.5408
     27 O2          1.8550    5.1530   -7.4563 O.2       1 <0>        -0.3993
     28 C21         3.4466    3.4495   -7.3345 C.ar      1 <0>        -0.1183
     29 C22         4.4517    2.8387   -6.5601 C.ar      1 <0>        -0.0813
     30 C23         5.1365    1.7677   -7.0148 C.ar      1 <0>        -0.0581
     31 C24         4.8552    1.2266   -8.2985 C.ar      1 <0>         0.0737
     32 C25         3.8148    1.8511   -9.1118 C.ar      1 <0>         0.0478
     33 C26         3.1268    2.9725   -8.5889 C.ar      1 <0>         0.0223
     34 N5          3.6624    1.2385  -10.2857 N.2       1 <0>        -0.5368
     35 S2          4.6992    0.0637  -10.3033 S.3       1 <0>         0.7830
     36 N6          5.4142    0.1882   -8.9149 N.2       1 <0>        -0.5537
     37 H1         -3.7311   18.5451   -6.0097 H         1 <0>         0.0689
     38 H2         -5.0676   18.0799   -4.9033 H         1 <0>         0.0750
     39 H3         -4.5519   16.9598   -6.2095 H         1 <0>         0.0752
     40 H4         -1.6369   18.4186   -5.0738 H         1 <0>         0.1304
     41 H5         -0.0038   17.3917   -3.5480 H         1 <0>         0.1319
     42 H6         -2.9747   14.5590   -2.3060 H         1 <0>         0.1350
     43 H7         -4.5951   15.6064   -3.8315 H         1 <0>         0.1305
     44 H8          1.1745   14.0766   -0.3277 H         1 <0>         0.1032
     45 H9         -0.1532   12.9665    0.1536 H         1 <0>         0.0803
     46 H10         1.8651   12.5519   -2.1279 H         1 <0>         0.0537
     47 H11         1.7660   11.6191   -0.5960 H         1 <0>         0.0991
     48 H12         0.1617   12.3199   -3.7908 H         1 <0>         0.0527
     49 H13        -1.2258   11.2125   -3.5162 H         1 <0>         0.1007
     50 H14        -2.1259   12.6991   -1.7716 H         1 <0>         0.0838
     51 H15        -1.8216   13.6704   -3.2516 H         1 <0>         0.1087
     52 H16        -0.9962    9.2380   -3.1756 H         1 <0>         0.1309
     53 H17         0.0942    7.1960   -4.0100 H         1 <0>         0.1478
     54 H18         3.8731    8.6536   -2.6401 H         1 <0>         0.1247
     55 H19         2.7848   10.7006   -1.8152 H         1 <0>         0.1315
     56 H20         3.4089    6.1101   -3.2293 H         1 <0>         0.4292
     57 H21         3.8153    4.6098   -4.9742 H         1 <0>         0.4322
     58 H22         4.6764    3.2326   -5.5800 H         1 <0>         0.1365
     59 H23         5.9024    1.3193   -6.3993 H         1 <0>         0.1495
     60 H24         2.3530    3.4524   -9.1697 H         1 <0>         0.1606
@<TRIPOS>BOND
     1    1    2 1
     2    1   37 1
     3    1   38 1
     4    1   39 1
     5    2    7 ar
     6    2    3 ar
     7    3    4 ar
     8    3   40 1
     9    4    5 ar
    10    4   41 1
    11    5    6 ar
    12    5    8 1
    13    6    7 ar
    14    6   42 1
    15    7   43 1
    16    8    9 2
    17    8   10 am
    18   10   15 1
    19   10   11 1
    20   11   12 1
    21   11   44 1
    22   11   45 1
    23   12   13 1
    24   12   46 1
    25   12   47 1
    26   13   14 1
    27   13   16 1
    28   14   15 1
    29   14   48 1
    30   14   49 1
    31   15   50 1
    32   15   51 1
    33   16   21 ar
    34   16   17 ar
    35   17   18 ar
    36   17   52 1
    37   18   19 ar
    38   18   53 1
    39   19   20 ar
    40   19   22 1
    41   20   21 ar
    42   20   54 1
    43   21   55 1
    44   22   23 1
    45   22   56 1
    46   23   24 2
    47   23   25 1
    48   25   26 am
    49   25   57 1
    50   26   27 2
    51   26   28 1
    52   28   33 ar
    53   28   29 ar
    54   29   30 ar
    55   29   58 1
    56   30   31 ar
    57   30   59 1
    58   31   36 2
    59   31   32 ar
    60   32   33 ar
    61   32   34 2
    62   33   60 1
    63   34   35 1
    64   35   36 1
@<TRIPOS>MOLECULE
ZINC35729091
   55    58     0     0     0
SMALL
USER_CHARGES

@<TRIPOS>ATOM
      1 C1          0.0461    1.4891   -0.0062 C.3       1 <0>         0.0876
      2 N1          0.0670    0.0243   -0.0103 N.pl3     1 <0>        -0.6306
      3 C2          0.0981   -0.7114    1.2562 C.3       1 <0>         0.0872
      4 C3          0.0573   -0.6703   -1.2207 C.ar      1 <0>         0.2388
      5 C4          0.0714   -2.0607   -1.2228 C.ar      1 <0>        -0.1995
      6 C5          0.0623   -2.7495   -2.4163 C.ar      1 <0>        -0.0140
      7 C6          0.0384   -2.0497   -3.6243 C.ar      1 <0>        -0.0809
      8 C7          0.0238   -0.6535   -3.6188 C.ar      1 <0>        -0.0358
      9 C8          0.0277    0.0294   -2.4219 C.ar      1 <0>        -0.1980
     10 C9          0.0291   -2.7853   -4.9061 C.2       1 <0>         0.1251
     11 N2          0.0343   -4.0922   -5.1397 N.2       1 <0>        -0.2629
     12 N3          0.0246   -4.5593   -6.3112 N.2       1 <0>        -0.2717
     13 C10         0.0087   -3.7733   -7.3796 C.2       1 <0>         0.2813
     14 S1         -0.0003   -2.1681   -6.5865 S.3       1 <0>        -0.0202
     15 N4         -0.0037   -4.1021   -8.7300 N.am      1 <0>        -0.6098
     16 C11        -0.0007   -5.3956   -9.1086 C.2       1 <0>         0.5025
     17 O1          0.0129   -6.2727   -8.2710 O.2       1 <0>        -0.4487
     18 C12        -0.0141   -5.7522  -10.5728 C.3       1 <0>         0.1493
     19 H1          0.6450   -5.0812  -11.1236 H         1 <0>         0.1091
     20 C13        -1.4512   -5.6470  -11.1254 C.3       1 <0>        -0.1248
     21 C14        -1.5376   -6.8509  -12.1003 C.3       1 <0>        -0.1269
     22 C15        -0.6804   -7.9100  -11.3632 C.3       1 <0>         0.0931
     23 N5          0.4253   -7.1437  -10.7526 N.am      1 <0>        -0.6152
     24 C16         1.6342   -7.6353  -10.4161 C.2       1 <0>         0.7310
     25 O2          2.4697   -6.9062   -9.9173 O.2       1 <0>        -0.5589
     26 N6          1.9171   -8.9351  -10.6325 N.am      1 <0>        -0.6803
     27 C17         3.2030   -9.4241  -10.3737 C.ar      1 <0>         0.1792
     28 C18         3.7480  -10.4113  -11.1842 C.ar      1 <0>        -0.1411
     29 C19         5.0168  -10.8919  -10.9265 C.ar      1 <0>        -0.0709
     30 C20         5.7449  -10.3908   -9.8621 C.ar      1 <0>        -0.1069
     31 C21         5.2043   -9.4072   -9.0530 C.ar      1 <0>        -0.0702
     32 C22         3.9382   -8.9189   -9.3095 C.ar      1 <0>        -0.1122
     33 Br1         7.4817  -11.0518   -9.5121 Br        1 <0>        -0.0510
     34 H2          1.0683    1.8671   -0.0219 H         1 <0>         0.0530
     35 H3         -0.4873    1.8473   -0.8867 H         1 <0>         0.0718
     36 H4         -0.4584    1.8428    0.8930 H         1 <0>         0.0702
     37 H5         -0.9216   -0.9086    1.5870 H         1 <0>         0.0533
     38 H6          0.6233   -1.6560    1.1148 H         1 <0>         0.0728
     39 H7          0.6157   -0.1170    2.0090 H         1 <0>         0.0702
     40 H8          0.0899   -2.6014   -0.2881 H         1 <0>         0.1330
     41 H9          0.0740   -3.8294   -2.4173 H         1 <0>         0.1375
     42 H10         0.0053   -0.1094   -4.5516 H         1 <0>         0.1257
     43 H11         0.0123    1.1093   -2.4170 H         1 <0>         0.1322
     44 H12        -0.0146   -3.4007   -9.3999 H         1 <0>         0.4277
     45 H13        -2.1815   -5.7476  -10.3225 H         1 <0>         0.0873
     46 H14        -1.5910   -4.7073  -11.6598 H         1 <0>         0.1016
     47 H15        -2.5674   -7.1904  -12.2115 H         1 <0>         0.0957
     48 H16        -1.1033   -6.6017  -13.0684 H         1 <0>         0.0861
     49 H17        -1.2705   -8.4063  -10.5928 H         1 <0>         0.0783
     50 H18        -0.2884   -8.6402  -12.0712 H         1 <0>         0.0824
     51 H19         1.2297   -9.5318  -10.9676 H         1 <0>         0.4091
     52 H20         3.1799  -10.8030  -12.0150 H         1 <0>         0.1347
     53 H21         5.4410  -11.6599  -11.5563 H         1 <0>         0.1375
     54 H22         5.7748   -9.0177   -8.2227 H         1 <0>         0.1361
     55 H23         3.5186   -8.1477   -8.6806 H         1 <0>         0.1501
@<TRIPOS>BOND
     1    1    2 1
     2    1   34 1
     3    1   35 1
     4    1   36 1
     5    2    3 1
     6    2    4 1
     7    3   37 1
     8    3   38 1
     9    3   39 1
    10    4    9 ar
    11    4    5 ar
    12    5    6 ar
    13    5   40 1
    14    6    7 ar
    15    6   41 1
    16    7    8 ar
    17    7   10 1
    18    8    9 ar
    19    8   42 1
    20    9   43 1
    21   10   14 1
    22   10   11 2
    23   11   12 1
    24   12   13 2
    25   13   14 1
    26   13   15 1
    27   15   16 am
    28   15   44 1
    29   16   17 2
    30   16   18 1
    31   18   19 1
    32   18   23 1
    33   18   20 1
    34   20   21 1
    35   20   45 1
    36   20   46 1
    37   21   22 1
    38   21   47 1
    39   21   48 1
    40   22   23 1
    41   22   49 1
    42   22   50 1
    43   23   24 am
    44   24   25 2
    45   24   26 am
    46   26   27 1
    47   26   51 1
    48   27   32 ar
    49   27   28 ar
    50   28   29 ar
    51   28   52 1
    52   29   30 ar
    53   29   53 1
    54   30   31 ar
    55   30   33 1
    56   31   32 ar
    57   31   54 1
    58   32   55 1
@<TRIPOS>MOLECULE
ZINC44176542
   72    75     0     0     0
SMALL
USER_CHARGES

@<TRIPOS>ATOM
      1 C1         -1.8672    2.7762   -3.7056 C.3       1 <0>        -0.1402
      2 C2         -0.9194    2.1263   -2.6956 C.3       1 <0>        -0.0342
      3 C3         -0.0667    3.2069   -2.0278 C.3       1 <0>        -0.1397
      4 C4         -1.7354    1.3902   -1.6310 C.3       1 <0>        -0.1475
      5 C5         -0.0221    1.1466   -3.4070 C.ar      1 <0>        -0.0435
      6 C6         -0.0423   -0.1901   -3.0507 C.ar      1 <0>        -0.1241
      7 C7          0.7766   -1.0921   -3.6980 C.ar      1 <0>        -0.0597
      8 C8          1.6268   -0.6535   -4.7144 C.ar      1 <0>        -0.1331
      9 C9          1.6423    0.6964   -5.0689 C.ar      1 <0>        -0.0900
     10 C10         0.8142    1.5870   -4.4175 C.ar      1 <0>        -0.1201
     11 C11         2.5075   -1.6145   -5.4120 C.2       1 <0>         0.5581
     12 O1          2.0778   -2.7019   -5.7444 O.2       1 <0>        -0.4883
     13 N1          3.7866   -1.2849   -5.6794 N.am      1 <0>        -0.6003
     14 C12         4.3454   -0.0108   -5.2058 C.3       1 <0>         0.0846
     15 C13         5.6068   -0.3041   -4.3842 C.3       1 <0>         0.1128
     16 N2          6.4680   -1.2126   -5.1542 N.am      1 <0>        -0.6226
     17 C14         5.9093   -2.4867   -5.6278 C.3       1 <0>         0.1106
     18 C15         4.6495   -2.1959   -6.4446 C.3       1 <0>         0.1152
     19 H1          4.9288   -1.7284   -7.3888 H         1 <0>         0.0937
     20 C16         3.9142   -3.4838   -6.7119 C.2       1 <0>         0.5370
     21 O2          3.6833   -4.2506   -5.8011 O.2       1 <0>        -0.5171
     22 N3          3.5130   -3.7835   -7.9632 N.am      1 <0>        -0.7202
     23 C17         2.7982   -5.0356   -8.2232 C.3       1 <0>         0.1305
     24 C18         2.4600   -5.1301   -9.7123 C.3       1 <0>         0.0676
     25 H2          3.3713   -5.0979  -10.3094 H         1 <0>         0.0769
     26 C19         1.6720   -6.4321  -10.0033 C.3       1 <0>        -0.1485
     27 C20         0.9098   -6.0327  -11.2961 C.3       1 <0>        -0.1556
     28 C21         0.6324   -4.5321  -11.0626 C.3       1 <0>         0.0502
     29 O3          1.5773   -4.0623  -10.0919 O.3       1 <0>        -0.3766
     30 C22         7.7472   -0.8829   -5.4215 C.2       1 <0>         0.7110
     31 O4          8.2269    0.1277   -4.9452 O.2       1 <0>        -0.5630
     32 N4          8.4947   -1.6735   -6.2169 N.am      1 <0>        -0.6855
     33 C23         9.8552   -1.3962   -6.4007 C.ar      1 <0>         0.1542
     34 C24        10.6022   -0.8604   -5.3601 C.ar      1 <0>        -0.0904
     35 C25        11.9438   -0.5881   -5.5432 C.ar      1 <0>        -0.1313
     36 C26        12.5440   -0.8490   -6.7635 C.ar      1 <0>         0.0823
     37 C27        11.8007   -1.3829   -7.8027 C.ar      1 <0>        -0.1317
     38 C28        10.4601   -1.6620   -7.6218 C.ar      1 <0>        -0.1182
     39 F1         13.8564   -0.5819   -6.9406 F         1 <0>        -0.1391
     40 H3         -1.2858    3.3006   -4.4640 H         1 <0>         0.0581
     41 H4         -2.4747    2.0064   -4.1814 H         1 <0>         0.0575
     42 H5         -2.5162    3.4848   -3.1910 H         1 <0>         0.0615
     43 H6         -0.7157    3.9155   -1.5132 H         1 <0>         0.0613
     44 H7          0.6085    2.7439   -1.3082 H         1 <0>         0.0579
     45 H8          0.5147    3.7313   -2.7862 H         1 <0>         0.0583
     46 H9         -2.3429    0.6204   -2.1067 H         1 <0>         0.0600
     47 H10        -1.0602    0.9272   -0.9114 H         1 <0>         0.0603
     48 H11        -2.3844    2.0988   -1.1164 H         1 <0>         0.0611
     49 H12        -0.7003   -0.5281   -2.2639 H         1 <0>         0.1347
     50 H13         0.7602   -2.1353   -3.4187 H         1 <0>         0.1307
     51 H14         2.2978    1.0421   -5.8545 H         1 <0>         0.1294
     52 H15         0.8220    2.6310   -4.6938 H         1 <0>         0.1293
     53 H16         4.6025    0.6158   -6.0598 H         1 <0>         0.0812
     54 H17         3.6127    0.5003   -4.5813 H         1 <0>         0.1153
     55 H18         6.1397    0.6262   -4.1874 H         1 <0>         0.1138
     56 H19         5.3281   -0.7753   -3.4417 H         1 <0>         0.0793
     57 H20         6.6420   -2.9978   -6.2523 H         1 <0>         0.0909
     58 H21         5.6521   -3.1133   -4.7738 H         1 <0>         0.0981
     59 H22         3.6977   -3.1702   -8.6917 H         1 <0>         0.3990
     60 H23         3.4276   -5.8790   -7.9393 H         1 <0>         0.0785
     61 H24         1.8778   -5.0564   -7.6395 H         1 <0>         0.0774
     62 H25         2.3478   -7.2673  -10.1878 H         1 <0>         0.0877
     63 H26         0.9792   -6.6613   -9.1936 H         1 <0>         0.0841
     64 H27         1.5356   -6.1791  -12.1764 H         1 <0>         0.0782
     65 H28        -0.0226   -6.5903  -11.3846 H         1 <0>         0.0848
     66 H29         0.7591   -3.9830  -11.9956 H         1 <0>         0.0693
     67 H30        -0.3822   -4.3975  -10.6878 H         1 <0>         0.0704
     68 H31         8.0905   -2.4346   -6.6621 H         1 <0>         0.4066
     69 H32        10.1344   -0.6564   -4.4083 H         1 <0>         0.1449
     70 H33        12.5251   -0.1710   -4.7342 H         1 <0>         0.1398
     71 H34        12.2704   -1.5850   -8.7539 H         1 <0>         0.1404
     72 H35         9.8817   -2.0826   -8.4312 H         1 <0>         0.1355
@<TRIPOS>BOND
     1    1    2 1
     2    1   40 1
     3    1   41 1
     4    1   42 1
     5    2    3 1
     6    2    4 1
     7    2    5 1
     8    3   43 1
     9    3   44 1
    10    3   45 1
    11    4   46 1
    12    4   47 1
    13    4   48 1
    14    5   10 ar
    15    5    6 ar
    16    6    7 ar
    17    6   49 1
    18    7    8 ar
    19    7   50 1
    20    8    9 ar
    21    8   11 1
    22    9   10 ar
    23    9   51 1
    24   10   52 1
    25   11   12 2
    26   11   13 am
    27   13   18 1
    28   13   14 1
    29   14   15 1
    30   14   53 1
    31   14   54 1
    32   15   16 1
    33   15   55 1
    34   15   56 1
    35   16   17 1
    36   16   30 am
    37   17   18 1
    38   17   57 1
    39   17   58 1
    40   18   19 1
    41   18   20 1
    42   20   21 2
    43   20   22 am
    44   22   23 1
    45   22   59 1
    46   23   24 1
    47   23   60 1
    48   23   61 1
    49   24   25 1
    50   24   29 1
    51   24   26 1
    52   26   27 1
    53   26   62 1
    54   26   63 1
    55   27   28 1
    56   27   64 1
    57   27   65 1
    58   28   29 1
    59   28   66 1
    60   28   67 1
    61   30   31 2
    62   30   32 am
    63   32   33 1
    64   32   68 1
    65   33   38 ar
    66   33   34 ar
    67   34   35 ar
    68   34   69 1
    69   35   36 ar
    70   35   70 1
    71   36   37 ar
    72   36   39 1
    73   37   38 ar
    74   37   71 1
    75   38   72 1
@<TRIPOS>MOLECULE
ZINC08416964
   45    48     0     0     0
SMALL
USER_CHARGES
2-[(5-amino-1,3,4-thiadiazol-2-yl)sulfanyl]-N-(3-cyano-6-phenyl-4,5,6,7-tetrahydrobenzothiophen-2-yl)-acetamide
@<TRIPOS>ATOM
      1 C1          2.6697   14.7382    0.4723 C.ar      1 <0>        -0.1226
      2 C2          2.9893   14.3503   -0.8155 C.ar      1 <0>        -0.1181
      3 C3          3.2993   13.0300   -1.0828 C.ar      1 <0>        -0.1144
      4 C4          3.2908   12.0977   -0.0622 C.ar      1 <0>        -0.0777
      5 C5          2.9666   12.4847    1.2247 C.ar      1 <0>        -0.1142
      6 C6          2.6607   13.8058    1.4928 C.ar      1 <0>        -0.1179
      7 C7          3.6289   10.6583   -0.3536 C.3       1 <0>        -0.0417
      8 H1          3.8464   10.5419   -1.4153 H         1 <0>         0.0866
      9 C8          4.8510   10.2414    0.4696 C.3       1 <0>        -0.1097
     10 C9          5.3529    8.8747    0.0001 C.3       1 <0>        -0.0616
     11 C10         4.1853    7.8958    0.0046 C.2       1 <0>        -0.0602
     12 C11         2.9078    8.3366    0.0188 C.2       1 <0>        -0.2038
     13 S1          1.9223    6.8659    0.0129 S.3       1 <0>         0.2640
     14 C12         3.1874    5.6819    0.0021 C.2       1 <0>         0.0850
     15 C13         4.3409    6.4518   -0.0047 C.2       1 <0>        -0.1217
     16 C14         5.6380    5.8451   -0.0209 C.1       1 <0>         0.2652
     17 N1          6.6669    5.3639   -0.0338 N.1       1 <0>        -0.4196
     18 N2          3.0738    4.2986   -0.0042 N.am      1 <0>        -0.6131
     19 C15         1.8554    3.7224    0.0043 C.2       1 <0>         0.5355
     20 O1          0.8583    4.4127    0.0176 O.2       1 <0>        -0.4776
     21 C16         1.7321    2.2205   -0.0026 C.3       1 <0>        -0.1602
     22 S2         -0.0218    1.7577    0.0117 S.3       1 <0>         0.1370
     23 C17         0.0021   -0.0041    0.0020 C.2       1 <0>         0.0196
     24 N3          1.0337   -0.8261   -0.0181 N.2       1 <0>        -0.2740
     25 N4          0.8252   -2.1859   -0.0175 N.2       1 <0>        -0.3747
     26 C18        -0.4046   -2.6614   -0.0084 C.2       1 <0>         0.3536
     27 S3         -1.3642   -1.1548    0.0089 S.3       1 <0>         0.0127
     28 N5         -0.8385   -3.9819   -0.0117 N.pl3     1 <0>        -0.7875
     29 C19         2.4438    9.7604    0.0304 C.3       1 <0>        -0.0278
     30 H2          2.4275   15.7698    0.6812 H         1 <0>         0.1206
     31 H3          2.9963   15.0788   -1.6128 H         1 <0>         0.1216
     32 H4          3.5486   12.7269   -2.0890 H         1 <0>         0.1218
     33 H5          2.9556   11.7555    2.0213 H         1 <0>         0.1222
     34 H6          2.4114   14.1089    2.4990 H         1 <0>         0.1216
     35 H7          4.5758   10.1839    1.5227 H         1 <0>         0.0715
     36 H8          5.6416   10.9809    0.3418 H         1 <0>         0.0746
     37 H9          6.1306    8.5190    0.6761 H         1 <0>         0.0775
     38 H10         5.7561    8.9580   -1.0091 H         1 <0>         0.0824
     39 H11         3.8713    3.7465   -0.0148 H         1 <0>         0.4257
     40 H12         2.2230    1.8116    0.8806 H         1 <0>         0.1380
     41 H13         2.2060    1.8211   -0.8993 H         1 <0>         0.1381
     42 H14        -1.7879   -4.1805   -0.0040 H         1 <0>         0.4243
     43 H15        -0.1918   -4.7048   -0.0217 H         1 <0>         0.4236
     44 H16         2.0916   10.0237    1.0278 H         1 <0>         0.0887
     45 H17         1.6363    9.8899   -0.6902 H         1 <0>         0.0866
@<TRIPOS>BOND
     1    1    6 ar
     2    1    2 ar
     3    1   30 1
     4    2    3 ar
     5    2   31 1
     6    3    4 ar
     7    3   32 1
     8    4    5 ar
     9    4    7 1
    10    5    6 ar
    11    5   33 1
    12    6   34 1
    13    7    8 1
    14    7   29 1
    15    7    9 1
    16    9   10 1
    17    9   35 1
    18    9   36 1
    19   10   11 1
    20   10   37 1
    21   10   38 1
    22   11   15 1
    23   11   12 2
    24   12   13 1
    25   12   29 1
    26   13   14 1
    27   14   15 2
    28   14   18 1
    29   15   16 1
    30   16   17 3
    31   18   19 am
    32   18   39 1
    33   19   20 2
    34   19   21 1
    35   21   22 1
    36   21   40 1
    37   21   41 1
    38   22   23 1
    39   23   27 1
    40   23   24 2
    41   24   25 1
    42   25   26 2
    43   26   27 1
    44   26   28 1
    45   28   42 1
    46   28   43 1
    47   29   44 1
    48   29   45 1
@<TRIPOS>MOLECULE
ZINC13979376
   35    36     0     0     0
SMALL
USER_CHARGES
(E)-N-[[(2-iodobenzoyl)amino]carbamothioyl]-3-(2-thienyl)prop-2-enamide
@<TRIPOS>ATOM
      1 C1          4.7551   -4.4603   -0.0674 C.ar      1 <0>        -0.1065
      2 C2          5.9644   -5.1333   -0.0826 C.ar      1 <0>        -0.0805
      3 C3          7.1548   -4.4292   -0.0901 C.ar      1 <0>        -0.0877
      4 C4          7.1437   -3.0486   -0.0825 C.ar      1 <0>        -0.0561
      5 C5          5.9270   -2.3639   -0.0672 C.ar      1 <0>        -0.1091
      6 C6          4.7295   -3.0814   -0.0539 C.ar      1 <0>        -0.0834
      7 C7          5.9069   -0.8859   -0.0591 C.2       1 <0>         0.5540
      8 O1          6.9513   -0.2639   -0.0657 O.2       1 <0>        -0.4791
      9 N1          4.7308   -0.2280   -0.0443 N.am      1 <0>        -0.5474
     10 N2          4.7118    1.1728   -0.0366 N.pl3     1 <0>        -0.4548
     11 C8          3.5356    1.8308   -0.0219 C.2       1 <0>         0.5169
     12 S1          3.5124    3.5426   -0.0125 S.2       1 <0>        -0.4569
     13 N3          2.3777    1.1411   -0.0145 N.am      1 <0>        -0.6448
     14 C9          1.2015    1.7990    0.0002 C.2       1 <0>         0.5330
     15 O2          1.1850    3.0165    0.0069 O.2       1 <0>        -0.4133
     16 C10        -0.0126    1.0758    0.0080 C.2       1 <0>        -0.2438
     17 C11        -1.1972    1.7385    0.0172 C.2       1 <0>         0.0664
     18 C12        -2.4132    1.0143    0.0190 C.2       1 <0>        -0.1856
     19 C13        -3.7184    1.4930    0.0278 C.2       1 <0>        -0.0979
     20 C14        -4.7241    0.5597    0.0270 C.2       1 <0>        -0.1741
     21 C15        -4.4043   -0.7616    0.0179 C.2       1 <0>        -0.1862
     22 S2         -2.6709   -0.7510    0.0027 S.3       1 <0>         0.1345
     23 I1          8.9479   -1.9839   -0.0933 I         1 <0>         0.0143
     24 H1          3.8293   -5.0164   -0.0612 H         1 <0>         0.1408
     25 H2          5.9786   -6.2132   -0.0882 H         1 <0>         0.1414
     26 H3          8.0950   -4.9605   -0.1016 H         1 <0>         0.1417
     27 H4          3.7850   -2.5579   -0.0372 H         1 <0>         0.1283
     28 H5          3.8974   -0.7244   -0.0390 H         1 <0>         0.4157
     29 H6          5.5451    1.6692   -0.0419 H         1 <0>         0.4586
     30 H7          2.3908    0.1712   -0.0199 H         1 <0>         0.4013
     31 H8          0.0021   -0.0041    0.0020 H         1 <0>         0.1271
     32 H9         -1.2119    2.8184    0.0231 H         1 <0>         0.1562
     33 H10        -3.9311    2.5518    0.0353 H         1 <0>         0.1469
     34 H11        -5.7582    0.8712    0.0340 H         1 <0>         0.1401
     35 H12        -5.0696   -1.6124    0.0155 H         1 <0>         0.1901
@<TRIPOS>BOND
     1    1    6 ar
     2    1    2 ar
     3    1   24 1
     4    2    3 ar
     5    2   25 1
     6    3    4 ar
     7    3   26 1
     8    4    5 ar
     9    4   23 1
    10    5    6 ar
    11    5    7 1
    12    6   27 1
    13    7    8 2
    14    7    9 am
    15    9   10 1
    16    9   28 1
    17   10   11 1
    18   10   29 1
    19   11   12 2
    20   11   13 1
    21   13   14 am
    22   13   30 1
    23   14   15 2
    24   14   16 1
    25   16   17 2
    26   16   31 1
    27   17   18 1
    28   17   32 1
    29   18   22 1
    30   18   19 2
    31   19   20 1
    32   19   33 1
    33   20   21 2
    34   20   34 1
    35   21   22 1
    36   21   35 1
@<TRIPOS>MOLECULE
ZINC32527496
   58    61     0     0     0
SMALL
USER_CHARGES
2-[3-(4,6,8-trimethyl-2-oxo-1-quinolyl)propanoylamino]-4,5,6,7-tetrahydrobenzothiophene-3-carboxamide
@<TRIPOS>ATOM
      1 C1         -3.2767    2.5168   -0.1184 C.3       1 <0>        -0.1150
      2 C2         -1.7986    2.2700    0.0307 C.ar      1 <0>        -0.1108
      3 C3         -0.9122    3.3246    0.0790 C.ar      1 <0>        -0.0700
      4 C4          0.4559    3.1235    0.2166 C.ar      1 <0>        -0.1222
      5 C5          0.9782    1.8410    0.3096 C.ar      1 <0>         0.2054
      6 C6          0.0491    0.7614    0.2578 C.ar      1 <0>        -0.1242
      7 C7         -1.3232    0.9954    0.1194 C.ar      1 <0>        -0.0645
      8 C8          0.5172   -0.6229    0.3495 C.2       1 <0>         0.0169
      9 C9          1.8436   -0.8596    0.4836 C.2       1 <0>        -0.2249
     10 C10         2.7260    0.2290    0.5303 C.2       1 <0>         0.5258
     11 O1          3.9239    0.0261    0.6505 O.2       1 <0>        -0.5358
     12 N1          2.3068    1.5161    0.4482 N.am      1 <0>        -0.5203
     13 C11         3.4148    2.4747    0.5232 C.3       1 <0>         0.0884
     14 C12         3.9419    2.7561   -0.8853 C.3       1 <0>        -0.1524
     15 C13         5.0800    3.7408   -0.8084 C.2       1 <0>         0.5199
     16 O2          5.4347    4.1748    0.2672 O.2       1 <0>        -0.4990
     17 N2          5.7038    4.1392   -1.9347 N.am      1 <0>        -0.6330
     18 C14         6.7511    5.0453   -1.8639 C.2       1 <0>         0.0790
     19 C15         7.5129    5.5653   -2.9006 C.2       1 <0>        -0.2291
     20 C16         8.5605    6.5111   -2.5553 C.2       1 <0>        -0.0660
     21 C17         8.6843    6.7761   -1.2366 C.2       1 <0>        -0.2107
     22 S1          7.4310    5.7971   -0.4587 S.3       1 <0>         0.2214
     23 C18         9.6713    7.6979   -0.5893 C.3       1 <0>        -0.0373
     24 C19        10.7741    8.0186   -1.6087 C.3       1 <0>        -0.1139
     25 C20        10.1198    8.4040   -2.9386 C.3       1 <0>        -0.1195
     26 C21         9.4763    7.1723   -3.5779 C.3       1 <0>        -0.0611
     27 C22         7.2672    5.1778   -4.2932 C.2       1 <0>         0.5856
     28 O3          6.4834    5.8144   -4.9728 O.2       1 <0>        -0.5447
     29 N3          7.9093    4.1167   -4.8207 N.am      1 <0>        -0.8706
     30 C23        -0.4419   -1.7863    0.2976 C.3       1 <0>        -0.1291
     31 C24         1.2534    4.4051    0.2483 C.3       1 <0>        -0.1458
     32 H1         -3.4640    3.5994   -0.1731 H         1 <0>         0.0676
     33 H2         -3.8079    2.0961    0.7481 H         1 <0>         0.0716
     34 H3         -3.6378    2.0352   -1.0391 H         1 <0>         0.0715
     35 H4         -1.2759    4.3415    0.0096 H         1 <0>         0.1303
     36 H5         -2.0314    0.1799    0.0797 H         1 <0>         0.1340
     37 H6          2.2099   -1.8721    0.5574 H         1 <0>         0.1556
     38 H7          3.0587    3.4120    0.9755 H         1 <0>         0.1184
     39 H8          4.2227    2.0538    1.1398 H         1 <0>         0.1204
     40 H9          4.2980    1.8187   -1.3376 H         1 <0>         0.1117
     41 H10         3.1340    3.1769   -1.5019 H         1 <0>         0.1058
     42 H11         5.3822    3.7456   -2.9102 H         1 <0>         0.4454
     43 H12         9.1619    8.6231   -0.2818 H         1 <0>         0.0823
     44 H13        10.1060    7.2077    0.2943 H         1 <0>         0.0811
     45 H14        11.3846    8.8549   -1.2375 H         1 <0>         0.0742
     46 H15        11.4118    7.1335   -1.7497 H         1 <0>         0.0682
     47 H16         9.3467    9.1658   -2.7597 H         1 <0>         0.0676
     48 H17        10.8832    8.8091   -3.6191 H         1 <0>         0.0704
     49 H18        10.2569    6.4608   -3.8852 H         1 <0>         0.0759
     50 H19         8.8876    7.4730   -4.4571 H         1 <0>         0.0746
     51 H20         7.7250    3.8260   -5.8655 H         1 <0>         0.4222
     52 H21         8.6177    3.5414   -4.2065 H         1 <0>         0.4224
     53 H22         0.1195   -2.7284    0.3832 H         1 <0>         0.0795
     54 H23        -0.9870   -1.7697   -0.6577 H         1 <0>         0.0837
     55 H24        -1.1574   -1.7090    1.1295 H         1 <0>         0.0840
     56 H25         2.3222    4.1693    0.3585 H         1 <0>         0.0846
     57 H26         0.9242    5.0209    1.0983 H         1 <0>         0.0786
     58 H27         1.0948    4.9589   -0.6888 H         1 <0>         0.0758
@<TRIPOS>BOND
     1    1    2 1
     2    1   32 1
     3    1   33 1
     4    1   34 1
     5    2    7 ar
     6    2    3 ar
     7    3    4 ar
     8    3   35 1
     9    4    5 ar
    10    4   31 1
    11    5   12 1
    12    5    6 ar
    13    6    7 ar
    14    6    8 1
    15    7   36 1
    16    8    9 2
    17    8   30 1
    18    9   10 1
    19    9   37 1
    20   10   11 2
    21   10   12 am
    22   12   13 1
    23   13   14 1
    24   13   38 1
    25   13   39 1
    26   14   15 1
    27   14   40 1
    28   14   41 1
    29   15   16 2
    30   15   17 am
    31   17   18 1
    32   17   42 1
    33   18   22 1
    34   18   19 2
    35   19   20 1
    36   19   27 1
    37   20   26 1
    38   20   21 2
    39   21   22 1
    40   21   23 1
    41   23   24 1
    42   23   43 1
    43   23   44 1
    44   24   25 1
    45   24   45 1
    46   24   46 1
    47   25   26 1
    48   25   47 1
    49   25   48 1
    50   26   49 1
    51   26   50 1
    52   27   28 2
    53   27   29 am
    54   29   51 1
    55   29   52 1
    56   30   53 1
    57   30   54 1
    58   30   55 1
    59   31   56 1
    60   31   57 1
    61   31   58 1
@<TRIPOS>MOLECULE
ZINC37525355
   65    67     0     0     0
SMALL
USER_CHARGES

@<TRIPOS>ATOM
      1 C1         -0.6583   -3.7859    9.6161 C.3       1 <0>        -0.1568
      2 C2          0.0478   -2.4298    9.5590 C.3       1 <0>         0.1867
      3 H1         -0.6884   -1.6323    9.6589 H         1 <0>         0.0973
      4 C3          1.0462   -2.3355   10.6839 C.ar      1 <0>        -0.0925
      5 C4          2.2834   -2.9400   10.5625 C.ar      1 <0>        -0.1163
      6 C5          3.1992   -2.8535   11.5944 C.ar      1 <0>        -0.1154
      7 C6          2.8779   -2.1621   12.7475 C.ar      1 <0>        -0.1187
      8 C7          1.6410   -1.5568   12.8685 C.ar      1 <0>        -0.1145
      9 C8          0.7269   -1.6397   11.8349 C.ar      1 <0>        -0.1073
     10 N1          0.7430   -2.2948    8.2765 N.am      1 <0>        -0.7269
     11 C9          0.0774   -1.8486    7.1929 C.2       1 <0>         0.5600
     12 O1         -1.1002   -1.5581    7.2797 O.2       1 <0>        -0.5115
     13 C10         0.7770   -1.7128    5.9022 C.ar      1 <0>        -0.1529
     14 C11         2.1558   -1.9255    5.8242 C.ar      1 <0>        -0.0827
     15 C12         2.8036   -1.7970    4.6153 C.ar      1 <0>        -0.1326
     16 C13         2.0951   -1.4569    3.4736 C.ar      1 <0>        -0.0865
     17 C14         0.7335   -1.2431    3.5342 C.ar      1 <0>        -0.1351
     18 C15         0.0614   -1.3746    4.7433 C.ar      1 <0>         0.2376
     19 N2         -1.3102   -1.1660    4.8057 N.pl3     1 <0>        -0.6639
     20 C16        -2.2449   -2.2937    4.6900 C.3       1 <0>         0.1587
     21 C17        -3.2533   -1.9862    3.5785 C.3       1 <0>        -0.1414
     22 C18        -3.9242   -0.6402    3.8619 C.3       1 <0>         0.1706
     23 C19        -2.8668    0.4662    3.8745 C.3       1 <0>        -0.1429
     24 C20        -1.8539    0.1857    4.9950 C.3       1 <0>         0.1581
     25 N3         -4.9131   -0.3584    2.8184 N.am      1 <0>        -0.7455
     26 C21        -5.9539    0.4573    3.0789 C.2       1 <0>         0.7056
     27 O2         -6.0721    0.9593    4.1800 O.2       1 <0>        -0.5828
     28 N4         -6.8636    0.7166    2.1189 N.am      1 <0>        -0.7419
     29 C22        -7.9949    1.6032    2.4020 C.3       1 <0>         0.1868
     30 C23        -7.4727    2.9854    2.7993 C.3       1 <0>        -0.1643
     31 C24        -8.8699    1.7282    1.1532 C.3       1 <0>        -0.1556
     32 C25        -8.8237    1.0220    3.5493 C.3       1 <0>        -0.1646
     33 H2          0.0780   -4.5834    9.5162 H         1 <0>         0.0577
     34 H3         -1.1755   -3.8863   10.5703 H         1 <0>         0.0675
     35 H4         -1.3804   -3.8541    8.8025 H         1 <0>         0.0658
     36 H5          2.5344   -3.4802    9.6616 H         1 <0>         0.1186
     37 H6          4.1655   -3.3264   11.4998 H         1 <0>         0.1240
     38 H7          3.5931   -2.0952   13.5540 H         1 <0>         0.1235
     39 H8          1.3899   -1.0169   13.7696 H         1 <0>         0.1250
     40 H9         -0.2381   -1.1636   11.9280 H         1 <0>         0.1249
     41 H10         1.6824   -2.5265    8.2073 H         1 <0>         0.3962
     42 H11         2.7131   -2.1901    6.7107 H         1 <0>         0.1222
     43 H12         3.8694   -1.9618    4.5569 H         1 <0>         0.1279
     44 H13         2.6122   -1.3582    2.5306 H         1 <0>         0.1270
     45 H14         0.1887   -0.9780    2.6401 H         1 <0>         0.1281
     46 H15        -1.6940   -3.2011    4.4427 H         1 <0>         0.0655
     47 H16        -2.7721   -2.4297    5.6343 H         1 <0>         0.0611
     48 H17        -2.7357   -1.9400    2.6203 H         1 <0>         0.0671
     49 H18        -4.0098   -2.7702    3.5465 H         1 <0>         0.0730
     50 H19        -4.4207   -0.6790    4.8315 H         1 <0>         0.0885
     51 H20        -2.3529    0.4892    2.9135 H         1 <0>         0.0613
     52 H21        -3.3483    1.4276    4.0532 H         1 <0>         0.0722
     53 H22        -2.3499    0.2478    5.9636 H         1 <0>         0.0618
     54 H23        -1.0449    0.9148    4.9490 H         1 <0>         0.0638
     55 H24        -4.8187   -0.7589    1.9400 H         1 <0>         0.3923
     56 H25        -6.7693    0.3161    1.2405 H         1 <0>         0.3929
     57 H26        -6.8823    3.3994    1.9819 H         1 <0>         0.0513
     58 H27        -8.3144    3.6450    3.0100 H         1 <0>         0.0614
     59 H28        -6.8493    2.8963    3.6890 H         1 <0>         0.0804
     60 H29        -9.2420    0.7435    0.8702 H         1 <0>         0.0612
     61 H30        -9.7117    2.3879    1.3638 H         1 <0>         0.0746
     62 H31        -8.2795    2.1423    0.3358 H         1 <0>         0.0611
     63 H32        -8.2003    0.9330    4.4390 H         1 <0>         0.0804
     64 H33        -9.6654    1.6817    3.7600 H         1 <0>         0.0615
     65 H34        -9.1957    0.0373    3.2663 H         1 <0>         0.0515
@<TRIPOS>BOND
     1    1    2 1
     2    1   33 1
     3    1   34 1
     4    1   35 1
     5    2    3 1
     6    2    4 1
     7    2   10 1
     8    4    9 ar
     9    4    5 ar
    10    5    6 ar
    11    5   36 1
    12    6    7 ar
    13    6   37 1
    14    7    8 ar
    15    7   38 1
    16    8    9 ar
    17    8   39 1
    18    9   40 1
    19   10   11 am
    20   10   41 1
    21   11   12 2
    22   11   13 1
    23   13   18 ar
    24   13   14 ar
    25   14   15 ar
    26   14   42 1
    27   15   16 ar
    28   15   43 1
    29   16   17 ar
    30   16   44 1
    31   17   18 ar
    32   17   45 1
    33   18   19 1
    34   19   24 1
    35   19   20 1
    36   20   21 1
    37   20   46 1
    38   20   47 1
    39   21   22 1
    40   21   48 1
    41   21   49 1
    42   22   23 1
    43   22   25 1
    44   22   50 1
    45   23   24 1
    46   23   51 1
    47   23   52 1
    48   24   53 1
    49   24   54 1
    50   25   26 am
    51   25   55 1
    52   26   27 2
    53   26   28 am
    54   28   29 1
    55   28   56 1
    56   29   30 1
    57   29   31 1
    58   29   32 1
    59   30   57 1
    60   30   58 1
    61   30   59 1
    62   31   60 1
    63   31   61 1
    64   31   62 1
    65   32   63 1
    66   32   64 1
    67   32   65 1
@<TRIPOS>MOLECULE
ZINC15053817
   49    53     0     0     0
SMALL
USER_CHARGES

@<TRIPOS>ATOM
      1 C1          0.8658    0.3119   -2.3579 C.ar      1 <0>        -0.1213
      2 C2          2.1184    0.9170   -2.4347 C.ar      1 <0>        -0.0914
      3 C3          3.2109    0.3748   -1.8309 C.ar      1 <0>        -0.1247
      4 C4          3.0825   -0.8233   -1.1102 C.ar      1 <0>        -0.0015
      5 C5          1.7678   -1.4614   -1.0271 C.ar      1 <0>        -0.0635
      6 C6          0.6751   -0.8480   -1.6761 C.ar      1 <0>        -0.0933
      7 C7          1.6059   -2.6536   -0.3187 C.ar      1 <0>        -0.0515
      8 C8          2.7005   -3.2442    0.3153 C.ar      1 <0>        -0.0602
      9 C9          2.5593   -4.4493    1.0361 C.ar      1 <0>        -0.0954
     10 C10         3.6445   -4.9990    1.6416 C.ar      1 <0>        -0.1185
     11 C11         4.9015   -4.4023    1.5706 C.ar      1 <0>        -0.0883
     12 C12         5.1024   -3.2404    0.8913 C.ar      1 <0>        -0.1189
     13 C13         4.0226   -2.6200    0.2427 C.ar      1 <0>        -0.0088
     14 C14         4.1971   -1.4131   -0.4718 C.ar      1 <0>        -0.0933
     15 C15         5.4716   -0.8032   -0.5474 C.2       1 <0>         0.0751
     16 C16         6.1974   -0.5977    0.5882 C.2       1 <0>        -0.2042
     17 C17         7.5268    0.0164    0.7486 C.2       1 <0>         0.5601
     18 O1          8.1535    0.4338   -0.2081 O.2       1 <0>        -0.4688
     19 N1          8.0094    0.0948    1.9772 N.am      1 <0>        -0.5151
     20 C18         7.2804   -0.3852    3.0492 C.2       1 <0>         0.4096
     21 N2          7.6021   -0.3875    4.3133 N.2       1 <0>        -0.6384
     22 S1          5.7878   -0.9941    2.2818 S.3       1 <0>        -0.0376
     23 C19         9.2691    0.6682    2.1940 C.ar      1 <0>         0.1839
     24 C20         9.3807    2.0306    2.4377 C.ar      1 <0>        -0.1153
     25 C21        10.6240    2.5930    2.6510 C.ar      1 <0>        -0.0098
     26 C22        11.7570    1.8007    2.6217 C.ar      1 <0>        -0.6676
     27 C23        11.6491    0.4436    2.3792 C.ar      1 <0>        -0.0047
     28 C24        10.4080   -0.1257    2.1713 C.ar      1 <0>        -0.1153
     29 S2         13.3415    2.5221    2.8932 S.o2      1 <0>         2.7036
     30 O2         14.2899    1.6639    2.2741 O.2       1 <0>        -0.9584
     31 O3         13.2246    3.8976    2.5561 O.2       1 <0>        -0.9560
     32 N3         13.6365    2.4572    4.5214 N.pl3     1 <0>        -1.2466
     33 H1          0.0245    0.7787   -2.8487 H         1 <0>         0.1267
     34 H2          2.2251    1.8387   -2.9873 H         1 <0>         0.1272
     35 H3          4.1712    0.8632   -1.9060 H         1 <0>         0.1307
     36 H4         -0.3060   -1.2973   -1.6313 H         1 <0>         0.1330
     37 H5          0.6330   -3.1191   -0.2609 H         1 <0>         0.1395
     38 H6          1.5953   -4.9311    1.1061 H         1 <0>         0.1326
     39 H7          3.5296   -5.9212    2.1919 H         1 <0>         0.1262
     40 H8          5.7369   -4.8733    2.0672 H         1 <0>         0.1254
     41 H9          6.0868   -2.7979    0.8513 H         1 <0>         0.1331
     42 H10         5.8694   -0.5004   -1.5047 H         1 <0>         0.1632
     43 H11         6.9913   -0.7597    4.9685 H         1 <0>         0.3767
     44 H12         8.4962    2.6500    2.4601 H         1 <0>         0.1373
     45 H13        10.7114    3.6526    2.8406 H         1 <0>         0.1528
     46 H14        12.5358   -0.1725    2.3569 H         1 <0>         0.1527
     47 H15        10.3240   -1.1865    1.9867 H         1 <0>         0.1377
     48 H16        14.5472    2.3822    4.8467 H         1 <0>         0.4231
     49 H17        12.8985    2.4943    5.1499 H         1 <0>         0.4182
@<TRIPOS>BOND
     1    1    6 ar
     2    1    2 ar
     3    1   33 1
     4    2    3 ar
     5    2   34 1
     6    3    4 ar
     7    3   35 1
     8    4   14 ar
     9    4    5 ar
    10    5    6 ar
    11    5    7 ar
    12    6   36 1
    13    7    8 ar
    14    7   37 1
    15    8   13 ar
    16    8    9 ar
    17    9   10 ar
    18    9   38 1
    19   10   11 ar
    20   10   39 1
    21   11   12 ar
    22   11   40 1
    23   12   13 ar
    24   12   41 1
    25   13   14 ar
    26   14   15 1
    27   15   16 2
    28   15   42 1
    29   16   22 1
    30   16   17 1
    31   17   18 2
    32   17   19 am
    33   19   20 1
    34   19   23 1
    35   20   21 2
    36   20   22 1
    37   21   43 1
    38   23   28 ar
    39   23   24 ar
    40   24   25 ar
    41   24   44 1
    42   25   26 ar
    43   25   45 1
    44   26   27 ar
    45   26   29 1
    46   27   28 ar
    47   27   46 1
    48   28   47 1
    49   29   30 2
    50   29   31 2
    51   29   32 1
    52   32   48 1
    53   32   49 1
@<TRIPOS>MOLECULE
ZINC06038236
   57    60     0     0     0
SMALL
USER_CHARGES
N-(1,1-dioxothiolan-3-yl)-2-[3-(p-tolyl)prop-2-enoylamino]-4,5,6,7-tetrahydrobenzothiophene-3-carboxamide
@<TRIPOS>ATOM
      1 C1         -3.2962   14.1956   -6.6750 C.3       1 <0>        -0.1217
      2 C2         -2.9914   13.0866   -5.7012 C.ar      1 <0>        -0.0651
      3 C3         -2.8088   13.3785   -4.3607 C.ar      1 <0>        -0.1250
      4 C4         -2.5287   12.3695   -3.4636 C.ar      1 <0>        -0.0826
      5 C5         -2.4299   11.0483   -3.9114 C.ar      1 <0>        -0.0957
      6 C6         -2.6110   10.7622   -5.2682 C.ar      1 <0>        -0.0907
      7 C7         -2.8952   11.7816   -6.1521 C.ar      1 <0>        -0.1253
      8 C8         -2.1308    9.9654   -2.9605 C.2       1 <0>         0.0134
      9 C9         -2.0362    8.6926   -3.3960 C.2       1 <0>        -0.2302
     10 C10        -1.7388    7.6158   -2.4505 C.2       1 <0>         0.5472
     11 O1         -1.5768    7.8691   -1.2712 O.2       1 <0>        -0.5034
     12 N1         -1.6443    6.3438   -2.8858 N.am      1 <0>        -0.6172
     13 C11        -1.3629    5.3249   -1.9911 C.2       1 <0>         0.0772
     14 C12        -1.2271    3.9668   -2.2452 C.2       1 <0>        -0.2322
     15 C13        -0.9277    3.0997   -1.1184 C.2       1 <0>        -0.0651
     16 C14        -0.8134    3.7244    0.0738 C.2       1 <0>        -0.2093
     17 S1         -1.0957    5.4354   -0.2828 S.3       1 <0>         0.2353
     18 C15        -0.5138    3.0939    1.3988 C.3       1 <0>        -0.0358
     19 C16        -0.7261    1.5780    1.2706 C.3       1 <0>        -0.1155
     20 C17        -0.0127    1.0858    0.0080 C.3       1 <0>        -0.1187
     21 C18        -0.7492    1.5909   -1.2339 C.3       1 <0>        -0.0601
     22 C19        -1.3806    3.4276   -3.5997 C.2       1 <0>         0.5856
     23 O2         -2.4758    3.0692   -3.9916 O.2       1 <0>        -0.5227
     24 N2         -0.3091    3.3289   -4.4112 N.am      1 <0>        -0.7159
     25 C20        -0.4625    2.7900   -5.7648 C.3       1 <0>         0.1441
     26 H1         -1.2173    2.0037   -5.7578 H         1 <0>         0.1140
     27 C21        -0.9074    3.9146   -6.7145 C.3       1 <0>        -0.1477
     28 C22        -0.7592    3.4017   -8.1754 C.3       1 <0>        -0.5699
     29 S2          0.8414    2.4971   -8.0544 S.o2      1 <0>         2.3774
     30 O3          1.8985    3.3789   -8.4066 O.2       1 <0>        -0.9287
     31 O4          0.7188    1.2492   -8.7229 O.2       1 <0>        -0.9298
     32 C23         0.8880    2.2017   -6.2398 C.3       1 <0>        -0.5986
     33 H2         -2.3640   14.5939   -7.0754 H         1 <0>         0.0755
     34 H3         -3.9048   13.8056   -7.4909 H         1 <0>         0.0697
     35 H4         -3.8404   14.9893   -6.1631 H         1 <0>         0.0701
     36 H5         -2.8854   14.3993   -4.0164 H         1 <0>         0.1286
     37 H6         -2.3857   12.5989   -2.4180 H         1 <0>         0.1307
     38 H7         -2.5321    9.7449   -5.6222 H         1 <0>         0.1274
     39 H8         -3.0394   11.5617   -7.1996 H         1 <0>         0.1275
     40 H9         -1.9870   10.1901   -1.9139 H         1 <0>         0.1403
     41 H10        -2.1800    8.4679   -4.4426 H         1 <0>         0.1353
     42 H11        -1.7734    6.1420   -3.8258 H         1 <0>         0.4189
     43 H12         0.5195    3.2997    1.6781 H         1 <0>         0.0831
     44 H13        -1.1861    3.4957    2.1569 H         1 <0>         0.0813
     45 H14        -1.7918    1.3617    1.1959 H         1 <0>         0.0688
     46 H15        -0.3098    1.0767    2.1444 H         1 <0>         0.0744
     47 H16         0.0021   -0.0041    0.0020 H         1 <0>         0.0702
     48 H17         1.0103    1.4619    0.0003 H         1 <0>         0.0669
     49 H18        -0.1652    1.3592   -2.1246 H         1 <0>         0.0711
     50 H19        -1.7259    1.1114   -1.2999 H         1 <0>         0.0789
     51 H20         0.5637    3.6145   -4.0989 H         1 <0>         0.4077
     52 H21        -1.9484    4.1717   -6.5184 H         1 <0>         0.1073
     53 H22        -0.2778    4.7919   -6.5667 H         1 <0>         0.0920
     54 H23        -0.6910    4.2311   -8.8794 H         1 <0>         0.1460
     55 H24        -1.5736    2.7280   -8.4419 H         1 <0>         0.1440
     56 H25         1.7230    2.7330   -5.7830 H         1 <0>         0.1459
     57 H26         0.9437    1.1355   -6.0201 H         1 <0>         0.1509
@<TRIPOS>BOND
     1    1    2 1
     2    1   33 1
     3    1   34 1
     4    1   35 1
     5    2    7 ar
     6    2    3 ar
     7    3    4 ar
     8    3   36 1
     9    4    5 ar
    10    4   37 1
    11    5    6 ar
    12    5    8 1
    13    6    7 ar
    14    6   38 1
    15    7   39 1
    16    8    9 2
    17    8   40 1
    18    9   10 1
    19    9   41 1
    20   10   11 2
    21   10   12 am
    22   12   13 1
    23   12   42 1
    24   13   17 1
    25   13   14 2
    26   14   15 1
    27   14   22 1
    28   15   21 1
    29   15   16 2
    30   16   17 1
    31   16   18 1
    32   18   19 1
    33   18   43 1
    34   18   44 1
    35   19   20 1
    36   19   45 1
    37   19   46 1
    38   20   21 1
    39   20   47 1
    40   20   48 1
    41   21   49 1
    42   21   50 1
    43   22   23 2
    44   22   24 am
    45   24   25 1
    46   24   51 1
    47   25   26 1
    48   25   32 1
    49   25   27 1
    50   27   28 1
    51   27   52 1
    52   27   53 1
    53   28   29 1
    54   28   54 1
    55   28   55 1
    56   29   30 2
    57   29   31 2
    58   29   32 1
    59   32   56 1
    60   32   57 1
@<TRIPOS>MOLECULE
ZINC12180488
   53    57     0     0     0
SMALL
USER_CHARGES
N-[5-[2-[(3-chlorophenyl)amino]-2-oxo-ethyl]sulfanyl-1,3,4-thiadiazol-2-yl]adamantane-1-carboxamide
@<TRIPOS>ATOM
      1 C1         -0.5704   18.3446    0.2220 C.ar      1 <0>        -0.0871
      2 C2         -0.5146   16.9905    0.4894 C.ar      1 <0>        -0.1370
      3 C3         -1.5475   16.1591    0.0768 C.ar      1 <0>         0.1532
      4 C4         -2.6390   16.6935   -0.5952 C.ar      1 <0>        -0.1134
      5 C5         -2.6915   18.0498   -0.8558 C.ar      1 <0>        -0.0169
      6 C6         -1.6578   18.8746   -0.4471 C.ar      1 <0>        -0.1221
      7 Cl1        -4.0552   18.7195   -1.6958 Cl        1 <0>        -0.0610
      8 N1         -1.4914   14.7865    0.3426 N.am      1 <0>        -0.6640
      9 C7         -1.9982   13.9071   -0.5441 C.2       1 <0>         0.5377
     10 O1         -2.5772   14.3073   -1.5318 O.2       1 <0>        -0.4986
     11 C8         -1.8454   12.4265   -0.3083 C.3       1 <0>        -0.1620
     12 S1         -2.6268   11.5140   -1.6674 S.3       1 <0>         0.1389
     13 C9         -2.3661    9.8220   -1.2501 C.2       1 <0>        -0.0079
     14 N2         -1.7518    9.2872   -0.2050 N.2       1 <0>        -0.2585
     15 N3         -1.6522    8.0386   -0.0571 N.2       1 <0>        -0.2726
     16 C10        -2.1545    7.1862   -0.9353 C.2       1 <0>         0.2855
     17 S2         -2.8493    8.3340   -2.1209 S.3       1 <0>         0.0512
     18 N4         -2.1412    5.7935   -0.9395 N.am      1 <0>        -0.6115
     19 C11        -1.5474    5.1222    0.0672 C.2       1 <0>         0.5191
     20 O2         -1.0246    5.7310    0.9767 O.2       1 <0>        -0.4612
     21 C12        -1.5330    3.6153    0.0626 C.3       1 <0>        -0.0600
     22 C13        -0.8116    3.1159   -1.1908 C.3       1 <0>        -0.1044
     23 C14        -0.7970    1.5860   -1.1954 C.3       1 <0>        -0.0831
     24 C15        -0.0663    1.0792    0.0496 C.3       1 <0>        -0.1118
     25 C16        -0.7877    1.5786    1.3030 C.3       1 <0>        -0.0859
     26 C17        -0.8023    3.1085    1.3076 C.3       1 <0>        -0.0896
     27 C18        -2.2252    1.0548    1.3068 C.3       1 <0>        -0.1118
     28 C19        -2.9560    1.5616    0.0618 C.3       1 <0>        -0.0831
     29 C20        -2.2345    1.0622   -1.1916 C.3       1 <0>        -0.1114
     30 C21        -2.9706    3.0915    0.0664 C.3       1 <0>        -0.1044
     31 H1          0.2347   18.9906    0.5396 H         1 <0>         0.1391
     32 H2          0.3334   16.5781    1.0158 H         1 <0>         0.1345
     33 H3         -3.4456   16.0500   -0.9141 H         1 <0>         0.1515
     34 H4         -1.7010   19.9343   -0.6510 H         1 <0>         0.1366
     35 H5         -1.0877   14.4679    1.1651 H         1 <0>         0.4188
     36 H6         -2.3245   12.1572    0.6330 H         1 <0>         0.1342
     37 H7         -0.7862   12.1733   -0.2623 H         1 <0>         0.1344
     38 H8         -2.5592    5.3067   -1.6669 H         1 <0>         0.4281
     39 H9          0.2126    3.4890   -1.1935 H         1 <0>         0.0728
     40 H10        -1.3322    3.4770   -2.0778 H         1 <0>         0.0670
     41 H11        -0.2830    1.2302   -2.0884 H         1 <0>         0.0780
     42 H12        -0.0558   -0.0108    0.0463 H         1 <0>         0.0671
     43 H13         0.9579    1.4523    0.0469 H         1 <0>         0.0648
     44 H14        -0.2671    1.2175    2.1900 H         1 <0>         0.0779
     45 H15        -1.3163    3.4642    2.2006 H         1 <0>         0.0733
     46 H16         0.2218    3.4816    1.3049 H         1 <0>         0.0733
     47 H17        -2.7392    1.4105    2.1998 H         1 <0>         0.0648
     48 H18        -2.2148   -0.0352    1.3035 H         1 <0>         0.0671
     49 H19        -3.9801    1.1885    0.0645 H         1 <0>         0.0780
     50 H20        -2.7551    1.4233   -2.0786 H         1 <0>         0.0645
     51 H21        -2.2241   -0.0277   -1.1949 H         1 <0>         0.0682
     52 H22        -3.4912    3.4526   -0.8206 H         1 <0>         0.0670
     53 H23        -3.4845    3.4473    0.9594 H         1 <0>         0.0728
@<TRIPOS>BOND
     1    1    6 ar
     2    1    2 ar
     3    1   31 1
     4    2    3 ar
     5    2   32 1
     6    3    4 ar
     7    3    8 1
     8    4    5 ar
     9    4   33 1
    10    5    6 ar
    11    5    7 1
    12    6   34 1
    13    8    9 am
    14    8   35 1
    15    9   10 2
    16    9   11 1
    17   11   12 1
    18   11   36 1
    19   11   37 1
    20   12   13 1
    21   13   17 1
    22   13   14 2
    23   14   15 1
    24   15   16 2
    25   16   17 1
    26   16   18 1
    27   18   19 am
    28   18   38 1
    29   19   20 2
    30   19   21 1
    31   21   26 1
    32   21   30 1
    33   21   22 1
    34   22   23 1
    35   22   39 1
    36   22   40 1
    37   23   29 1
    38   23   24 1
    39   23   41 1
    40   24   25 1
    41   24   42 1
    42   24   43 1
    43   25   26 1
    44   25   27 1
    45   25   44 1
    46   26   45 1
    47   26   46 1
    48   27   28 1
    49   27   47 1
    50   27   48 1
    51   28   29 1
    52   28   30 1
    53   28   49 1
    54   29   50 1
    55   29   51 1
    56   30   52 1
    57   30   53 1
@<TRIPOS>MOLECULE
ZINC21120426
   45    48     0     0     0
SMALL
USER_CHARGES
4-fluoro-N'-[2-[5-(4-fluorophenyl)thieno[3,2-e]pyrimidin-4-yl]sulfanylacetyl]benzohydrazide
@<TRIPOS>ATOM
      1 C1          8.5320    5.3217   -0.9711 C.ar      1 <0>        -0.0672
      2 C2          7.6278    6.3637   -0.9565 C.ar      1 <0>        -0.1506
      3 C3          6.6010    6.3798   -0.0265 C.ar      1 <0>         0.1125
      4 C4          6.4734    5.3479    0.8891 C.ar      1 <0>        -0.1373
      5 C5          7.3696    4.2989    0.8788 C.ar      1 <0>        -0.0587
      6 C6          8.4046    4.2783   -0.0551 C.ar      1 <0>        -0.0593
      7 C7          9.3700    3.1535   -0.0704 C.2       1 <0>        -0.0526
      8 C8         10.6949    3.3799    0.0906 C.2       1 <0>        -0.1382
      9 S1         11.4099    1.7497   -0.0027 S.3       1 <0>         0.1323
     10 C9          9.9291    0.8073   -0.2533 C.ar      1 <0>         0.1312
     11 C10         8.9107    1.7824   -0.2650 C.ar      1 <0>        -0.1711
     12 C11         7.5919    1.2853   -0.4470 C.ar      1 <0>         0.1891
     13 N1          7.4078   -0.0173   -0.6000 N.ar      1 <0>        -0.5362
     14 C12         8.4115   -0.8750   -0.5838 C.ar      1 <0>         0.3362
     15 N2          9.6564   -0.4734   -0.4132 N.ar      1 <0>        -0.4855
     16 S2          6.2190    2.3893   -0.4762 S.3       1 <0>         0.0967
     17 C13         4.8720    1.2089   -0.7374 C.3       1 <0>        -0.1770
     18 C14         3.5604    1.9487   -0.7976 C.2       1 <0>         0.5353
     19 O1          3.5386    3.1552   -0.6759 O.2       1 <0>        -0.5305
     20 N3          2.4117    1.2696   -0.9866 N.am      1 <0>        -0.5253
     21 N4          1.1924    1.9573   -1.0426 N.am      1 <0>        -0.5286
     22 C15         0.0437    1.2782   -1.2317 C.2       1 <0>         0.5663
     23 O2          0.0656    0.0688   -1.3536 O.2       1 <0>        -0.5380
     24 C16        -1.2413    2.0040   -1.2968 C.ar      1 <0>        -0.1415
     25 C17        -1.2699    3.3926   -1.1513 C.ar      1 <0>        -0.0552
     26 C18        -2.4711    4.0653   -1.2181 C.ar      1 <0>        -0.1584
     27 C19        -3.6508    3.3647   -1.4179 C.ar      1 <0>         0.1319
     28 C20        -3.6286    1.9854   -1.5578 C.ar      1 <0>        -0.1593
     29 C21        -2.4324    1.3033   -1.4983 C.ar      1 <0>        -0.0245
     30 F1         -4.8260    4.0284   -1.4770 F         1 <0>        -0.1301
     31 F2          5.7210    7.4049   -0.0127 F         1 <0>        -0.1363
     32 H1          9.3349    5.3124   -1.6933 H         1 <0>         0.1361
     33 H2          7.7230    7.1702   -1.6685 H         1 <0>         0.1396
     34 H3          5.6714    5.3647    1.6122 H         1 <0>         0.1401
     35 H4          7.2698    3.4952    1.5934 H         1 <0>         0.1367
     36 H5         11.1987    4.3234    0.2404 H         1 <0>         0.2040
     37 H6          8.2090   -1.9279   -0.7133 H         1 <0>         0.2128
     38 H7          5.0337    0.6716   -1.6835 H         1 <0>         0.1296
     39 H8          4.8491    0.4889    0.0939 H         1 <0>         0.1308
     40 H9          2.4315    0.1753   -1.0969 H         1 <0>         0.4628
     41 H10         1.1726    3.0516   -0.9322 H         1 <0>         0.4568
     42 H11        -0.3521    3.9387   -0.9907 H         1 <0>         0.1368
     43 H12        -2.4939    5.1397   -1.1101 H         1 <0>         0.1466
     44 H13        -4.5503    1.4446   -1.7140 H         1 <0>         0.1473
     45 H14        -2.4162    0.2290   -1.6078 H         1 <0>         0.1499
@<TRIPOS>BOND
     1    1    6 ar
     2    1    2 ar
     3    1   32 1
     4    2    3 ar
     5    2   33 1
     6    3    4 ar
     7    3   31 1
     8    4    5 ar
     9    4   34 1
    10    5    6 ar
    11    5   35 1
    12    6    7 1
    13    7   11 1
    14    7    8 2
    15    8    9 1
    16    8   36 1
    17    9   10 1
    18   10   15 ar
    19   10   11 ar
    20   11   12 ar
    21   12   13 ar
    22   12   16 1
    23   13   14 ar
    24   14   15 ar
    25   14   37 1
    26   16   17 1
    27   17   18 1
    28   17   38 1
    29   17   39 1
    30   18   19 2
    31   18   20 am
    32   20   21 1
    33   20   40 1
    34   21   22 am
    35   21   41 1
    36   22   23 2
    37   22   24 1
    38   24   29 ar
    39   24   25 ar
    40   25   26 ar
    41   25   42 1
    42   26   27 ar
    43   26   43 1
    44   27   28 ar
    45   27   30 1
    46   28   29 ar
    47   28   44 1
    48   29   45 1
@<TRIPOS>MOLECULE
ZINC35955602
   66    69     0     0     0
SMALL
USER_CHARGES

@<TRIPOS>ATOM
      1 C1          0.0124    1.3181   -0.0028 C.3       1 <0>        -0.1295
      2 C2          0.0599   -0.1877    0.0354 C.ar      1 <0>        -0.0188
      3 C3         -0.0228   -0.9120   -1.1360 C.ar      1 <0>        -0.1318
      4 C4          0.0207   -2.2943   -1.1027 C.ar      1 <0>        -0.0864
      5 C5          0.1473   -2.9598    0.1040 C.ar      1 <0>        -0.1356
      6 C6          0.2314   -2.2476    1.2823 C.ar      1 <0>        -0.0816
      7 C7          0.1934   -0.8524    1.2552 C.ar      1 <0>        -0.1453
      8 C8          0.2888   -0.0825    2.5138 C.2       1 <0>         0.5625
      9 O1          0.1792    1.1279    2.4956 O.2       1 <0>        -0.5256
     10 N1          0.4972   -0.7228    3.6813 N.am      1 <0>        -0.7240
     11 C9          0.5917    0.0401    4.9284 C.3       1 <0>         0.1408
     12 H1         -0.0861    0.8926    4.8851 H         1 <0>         0.0970
     13 C10         2.0264    0.5382    5.1141 C.3       1 <0>        -0.1260
     14 C11         2.1251    1.3350    6.4165 C.3       1 <0>        -0.1194
     15 C12         1.7405    0.4370    7.5941 C.3       1 <0>        -0.1191
     16 C13         0.3058   -0.0611    7.4084 C.3       1 <0>        -0.1258
     17 C14         0.2072   -0.8578    6.1060 C.3       1 <0>         0.1398
     18 H2          0.8850   -1.7103    6.1493 H         1 <0>         0.0952
     19 N2         -1.1666   -1.3348    5.9282 N.am      1 <0>        -0.7263
     20 C15        -1.5614   -2.4845    6.5102 C.2       1 <0>         0.5243
     21 O2         -0.7795   -3.1242    7.1811 O.2       1 <0>        -0.5294
     22 C16        -2.9745   -2.9751    6.3273 C.3       1 <0>        -0.1232
     23 H3         -3.1692   -3.1366    5.2670 H         1 <0>         0.1025
     24 C17        -3.1610   -4.2904    7.0871 C.3       1 <0>        -0.0994
     25 C18        -4.5861   -4.8063    6.8751 C.3       1 <0>        -0.1360
     26 C19        -5.5829   -3.7830    7.4282 C.3       1 <0>         0.0994
     27 N3         -5.3149   -2.4785    6.8075 N.am      1 <0>        -0.6044
     28 C20        -3.9531   -1.9306    6.8734 C.3       1 <0>         0.1234
     29 C21        -6.2995   -1.7971    6.1888 C.2       1 <0>         0.5658
     30 O3         -6.0463   -0.7648    5.5988 O.2       1 <0>        -0.5193
     31 C22        -7.6859   -2.3046    6.2276 C.ar      1 <0>        -0.1659
     32 C23        -8.2861   -2.6139    7.4502 C.ar      1 <0>        -0.0609
     33 C24        -9.5807   -3.0867    7.4795 C.ar      1 <0>        -0.1333
     34 C25       -10.2875   -3.2564    6.3011 C.ar      1 <0>        -0.0673
     35 C26        -9.7022   -2.9536    5.0862 C.ar      1 <0>        -0.1571
     36 C27        -8.4062   -2.4724    5.0410 C.ar      1 <0>         0.1463
     37 F1         -7.8361   -2.1712    3.8538 F         1 <0>        -0.1244
     38 H4          1.0271    1.7146    0.0317 H         1 <0>         0.0736
     39 H5         -0.4737    1.6430   -0.9227 H         1 <0>         0.0588
     40 H6         -0.5507    1.6857    0.8551 H         1 <0>         0.1029
     41 H7         -0.1221   -0.3987   -2.0810 H         1 <0>         0.1301
     42 H8         -0.0448   -2.8566   -2.0224 H         1 <0>         0.1281
     43 H9          0.1799   -4.0391    0.1233 H         1 <0>         0.1283
     44 H10         0.3302   -2.7682    2.2234 H         1 <0>         0.1225
     45 H11         0.5847   -1.6887    3.6958 H         1 <0>         0.3993
     46 H12         2.7042   -0.3143    5.1575 H         1 <0>         0.0676
     47 H13         2.3004    1.1779    4.2752 H         1 <0>         0.0753
     48 H14         3.1472    1.6898    6.5488 H         1 <0>         0.0698
     49 H15         1.4473    2.1875    6.3732 H         1 <0>         0.0671
     50 H16         2.4184   -0.4155    7.6375 H         1 <0>         0.0663
     51 H17         1.8108    1.0046    8.5220 H         1 <0>         0.0699
     52 H18         0.0319   -0.7008    8.2473 H         1 <0>         0.0744
     53 H19        -0.3720    0.7914    7.3651 H         1 <0>         0.0689
     54 H20        -1.7920   -0.8231    5.3915 H         1 <0>         0.4032
     55 H21        -2.4489   -5.0278    6.7166 H         1 <0>         0.0773
     56 H22        -2.9898   -4.1229    8.1504 H         1 <0>         0.0751
     57 H23        -4.7662   -4.9505    5.8098 H         1 <0>         0.0693
     58 H24        -4.7111   -5.7549    7.3973 H         1 <0>         0.0853
     59 H25        -6.5992   -4.0982    7.1918 H         1 <0>         0.0919
     60 H26        -5.4645   -3.7047    8.5089 H         1 <0>         0.0764
     61 H27        -3.7019   -1.7007    7.9089 H         1 <0>         0.0777
     62 H28        -3.8939   -1.0241    6.2710 H         1 <0>         0.0982
     63 H29        -7.7369   -2.4832    8.3709 H         1 <0>         0.1384
     64 H30       -10.0450   -3.3259    8.4248 H         1 <0>         0.1386
     65 H31       -11.3012   -3.6276    6.3313 H         1 <0>         0.1400
     66 H32       -10.2592   -3.0891    4.1709 H         1 <0>         0.1441
@<TRIPOS>BOND
     1    1    2 1
     2    1   38 1
     3    1   39 1
     4    1   40 1
     5    2    7 ar
     6    2    3 ar
     7    3    4 ar
     8    3   41 1
     9    4    5 ar
    10    4   42 1
    11    5    6 ar
    12    5   43 1
    13    6    7 ar
    14    6   44 1
    15    7    8 1
    16    8    9 2
    17    8   10 am
    18   10   11 1
    19   10   45 1
    20   11   12 1
    21   11   17 1
    22   11   13 1
    23   13   14 1
    24   13   46 1
    25   13   47 1
    26   14   15 1
    27   14   48 1
    28   14   49 1
    29   15   16 1
    30   15   50 1
    31   15   51 1
    32   16   17 1
    33   16   52 1
    34   16   53 1
    35   17   18 1
    36   17   19 1
    37   19   20 am
    38   19   54 1
    39   20   21 2
    40   20   22 1
    41   22   23 1
    42   22   28 1
    43   22   24 1
    44   24   25 1
    45   24   55 1
    46   24   56 1
    47   25   26 1
    48   25   57 1
    49   25   58 1
    50   26   27 1
    51   26   59 1
    52   26   60 1
    53   27   28 1
    54   27   29 am
    55   28   61 1
    56   28   62 1
    57   29   30 2
    58   29   31 1
    59   31   36 ar
    60   31   32 ar
    61   32   33 ar
    62   32   63 1
    63   33   34 ar
    64   33   64 1
    65   34   35 ar
    66   34   65 1
    67   35   36 ar
    68   35   66 1
    69   36   37 1
@<TRIPOS>MOLECULE
ZINC13387839
   49    52     0     0     0
SMALL
USER_CHARGES

@<TRIPOS>ATOM
      1 C1         -0.0102    1.3846    0.0004 C.ar      1 <0>        -0.1181
      2 C2          1.1782    2.0908   -0.0057 C.ar      1 <0>        -0.1207
      3 C3          2.3838    1.4147   -0.0190 C.ar      1 <0>        -0.1120
      4 C4          2.4011    0.0324   -0.0259 C.ar      1 <0>        -0.0677
      5 C5          1.2127   -0.6737   -0.0189 C.ar      1 <0>        -0.0877
      6 C6          0.0070    0.0024   -0.0070 C.ar      1 <0>        -0.1222
      7 C7          3.7154   -0.7046   -0.0414 C.3       1 <0>         0.1076
      8 H1          4.4987   -0.0354   -0.3973 H         1 <0>         0.1046
      9 C8          4.0520   -1.1657    1.3773 C.3       1 <0>        -0.1483
     10 C9          5.3680   -1.9593    1.3656 C.3       1 <0>         0.1404
     11 H2          5.5381   -2.4105    2.3431 H         1 <0>         0.1423
     12 N1          5.2335   -3.0074    0.3482 N.pl3     1 <0>        -0.4438
     13 C10         4.3591   -2.9014   -0.7262 C.2       1 <0>         0.4345
     14 N2          3.6142   -1.8560   -0.9463 N.2       1 <0>        -0.5361
     15 C11         4.4773   -4.1458   -1.4866 C.2       1 <0>        -0.1490
     16 C12         5.4079   -4.9109   -0.8626 C.2       1 <0>         0.1631
     17 N3          5.8872   -4.2302    0.2471 N.pl3     1 <0>        -0.4939
     18 C13         5.8419   -6.2553   -1.2961 C.2       1 <0>         0.5766
     19 O1          5.2896   -6.7998   -2.2321 O.2       1 <0>        -0.4771
     20 N4          6.8500   -6.8777   -0.6536 N.am      1 <0>        -0.7151
     21 C14         7.3542   -8.1602   -1.1507 C.3       1 <0>         0.1099
     22 C15         8.4890   -8.6468   -0.2472 C.3       1 <0>         0.0661
     23 H3          9.2536   -7.8742   -0.1654 H         1 <0>         0.0895
     24 C16         9.1071   -9.9356   -0.8306 C.3       1 <0>        -0.1481
     25 C17         9.3730  -10.7804    0.4451 C.3       1 <0>        -0.1565
     26 C18         8.1757  -10.3573    1.3329 C.3       1 <0>         0.0489
     27 O2          7.9748   -8.9610    1.0523 O.3       1 <0>        -0.3780
     28 Br1         3.5131   -4.6025   -3.0479 Br        1 <0>         0.0419
     29 C19         6.5322   -1.0324    1.0103 C.3       1 <0>         0.4339
     30 F1          6.6195   -0.0084    1.9595 F         1 <0>        -0.1690
     31 F2          7.7249   -1.7637    1.0023 F         1 <0>        -0.1780
     32 F3          6.3169   -0.4775   -0.2558 F         1 <0>        -0.1662
     33 H4         -0.9521    1.9128    0.0153 H         1 <0>         0.1209
     34 H5          1.1647    3.1707   -0.0003 H         1 <0>         0.1223
     35 H6          3.3122    1.9664   -0.0245 H         1 <0>         0.1200
     36 H7          1.2262   -1.7536   -0.0246 H         1 <0>         0.1218
     37 H8         -0.9214   -0.5493   -0.0019 H         1 <0>         0.1214
     38 H9          4.1587   -0.2960    2.0256 H         1 <0>         0.1119
     39 H10         3.2491   -1.8004    1.7524 H         1 <0>         0.1053
     40 H11         6.5697   -4.5551    0.8549 H         1 <0>         0.4410
     41 H12         7.2417   -6.4764    0.1379 H         1 <0>         0.4007
     42 H13         6.5477   -8.8934   -1.1479 H         1 <0>         0.0819
     43 H14         7.7275   -8.0346   -2.1671 H         1 <0>         0.0870
     44 H15         8.4010  -10.4404   -1.4900 H         1 <0>         0.0848
     45 H16        10.0388   -9.7172   -1.3525 H         1 <0>         0.0889
     46 H17         9.3402  -11.8472    0.2237 H         1 <0>         0.0875
     47 H18        10.3212  -10.5060    0.9074 H         1 <0>         0.0806
     48 H19         7.2867  -10.9291    1.0669 H         1 <0>         0.0639
     49 H20         8.4169  -10.4997    2.3863 H         1 <0>         0.0882
@<TRIPOS>BOND
     1    1    6 ar
     2    1    2 ar
     3    1   33 1
     4    2    3 ar
     5    2   34 1
     6    3    4 ar
     7    3   35 1
     8    4    5 ar
     9    4    7 1
    10    5    6 ar
    11    5   36 1
    12    6   37 1
    13    7    8 1
    14    7   14 1
    15    7    9 1
    16    9   10 1
    17    9   38 1
    18    9   39 1
    19   10   11 1
    20   10   12 1
    21   10   29 1
    22   12   17 1
    23   12   13 1
    24   13   14 2
    25   13   15 1
    26   15   16 2
    27   15   28 1
    28   16   17 1
    29   16   18 1
    30   17   40 1
    31   18   19 2
    32   18   20 am
    33   20   21 1
    34   20   41 1
    35   21   22 1
    36   21   42 1
    37   21   43 1
    38   22   23 1
    39   22   27 1
    40   22   24 1
    41   24   25 1
    42   24   44 1
    43   24   45 1
    44   25   26 1
    45   25   46 1
    46   25   47 1
    47   26   27 1
    48   26   48 1
    49   26   49 1
    50   29   30 1
    51   29   31 1
    52   29   32 1
@<TRIPOS>MOLECULE
ZINC64794618
   50    54     0     0     0
SMALL
USER_CHARGES

@<TRIPOS>ATOM
      1 C1         -0.0167    1.3821    0.0096 C.ar      1 <0>        -0.1854
      2 C2          1.1603    2.0944    0.0022 C.ar      1 <0>        -0.0155
      3 C3          2.3888    1.3895   -0.0133 C.ar      1 <0>        -0.1722
      4 C4          3.7433    1.9189   -0.0229 C.2       1 <0>         0.2619
      5 C5          4.7875    1.0451   -0.0373 C.2       1 <0>        -0.2121
      6 S1          3.9940   -0.5506   -0.0386 S.3       1 <0>         0.1496
      7 C6          2.2989   -0.0222   -0.0201 C.ar      1 <0>         0.1059
      8 N1          1.1486   -0.6573   -0.0129 N.ar      1 <0>        -0.4513
      9 C7          0.0021   -0.0041    0.0020 C.ar      1 <0>         0.1477
     10 C8          6.2255    1.3462   -0.0489 C.2       1 <0>         0.3194
     11 N2          6.7753    2.5418   -0.0418 N.2       1 <0>        -0.2961
     12 N3          8.0558    2.4357   -0.0554 N.2       1 <0>        -0.2808
     13 C9          8.4056    1.1702   -0.0721 C.2       1 <0>         0.1553
     14 N4          7.2548    0.4302   -0.0634 N.pl3     1 <0>        -0.4557
     15 C10         7.1408   -1.0303   -0.0704 C.3       1 <0>         0.1053
     16 C11         7.0879   -1.5308   -1.5153 C.3       1 <0>         0.0610
     17 H1          7.9446   -1.1570   -2.0760 H         1 <0>         0.0828
     18 C12         7.0585   -3.0796   -1.5472 C.3       1 <0>        -0.1471
     19 C13         6.3763   -3.3333   -2.9192 C.3       1 <0>        -0.1527
     20 C14         5.3920   -2.1482   -3.0197 C.3       1 <0>         0.0503
     21 O1          5.8632   -1.1173   -2.1417 O.3       1 <0>        -0.3598
     22 S2         10.0516    0.5416   -0.0948 S.3       1 <0>         0.0030
     23 C15        11.0896    2.0293   -0.0886 C.3       1 <0>        -0.0569
     24 C16        12.5421    1.6283   -0.1070 C.ar      1 <0>        -0.1292
     25 C17        13.2181    1.4260    1.0817 C.ar      1 <0>        -0.0380
     26 C18        14.5499    1.0578    1.0663 C.ar      1 <0>        -0.1629
     27 C19        15.2092    0.8917   -0.1403 C.ar      1 <0>         0.1434
     28 C20        14.5334    1.0941   -1.3310 C.ar      1 <0>        -0.1931
     29 C21        13.1976    1.4573   -1.3145 C.ar      1 <0>         0.1537
     30 F1         12.5352    1.6497   -2.4761 F         1 <0>        -0.1206
     31 F2         16.5115    0.5327   -0.1550 F         1 <0>        -0.1263
     32 N5          3.9693    3.3013   -0.0180 N.pl3     1 <0>        -0.8426
     33 H2         -0.9610    1.9060    0.0260 H         1 <0>         0.1457
     34 H3          1.1478    3.1743    0.0078 H         1 <0>         0.1369
     35 H4         -0.9279   -0.5531    0.0083 H         1 <0>         0.1725
     36 H5          8.0044   -1.4646    0.4332 H         1 <0>         0.1161
     37 H6          6.2299   -1.3262    0.4501 H         1 <0>         0.1063
     38 H7          8.0673   -3.4922   -1.5279 H         1 <0>         0.0903
     39 H8          6.4574   -3.4781   -0.7299 H         1 <0>         0.0857
     40 H9          7.1067   -3.3006   -3.7276 H         1 <0>         0.0785
     41 H10         5.8412   -4.2829   -2.9166 H         1 <0>         0.0869
     42 H11         5.3649   -1.7759   -4.0438 H         1 <0>         0.0684
     43 H12         4.3956   -2.4682   -2.7149 H         1 <0>         0.0746
     44 H13        10.8675    2.6309   -0.9700 H         1 <0>         0.1113
     45 H14        10.8847    2.6115    0.8098 H         1 <0>         0.1151
     46 H15        12.7050    1.5560    2.0231 H         1 <0>         0.1503
     47 H16        15.0771    0.9000    1.9956 H         1 <0>         0.1489
     48 H17        15.0467    0.9647   -2.2724 H         1 <0>         0.1537
     49 H18         3.2186    3.9155   -0.0077 H         1 <0>         0.3970
     50 H19         4.8766    3.6444   -0.0249 H         1 <0>         0.4206
@<TRIPOS>BOND
     1    1    9 ar
     2    1    2 ar
     3    1   33 1
     4    2    3 ar
     5    2   34 1
     6    3    7 ar
     7    3    4 1
     8    4    5 2
     9    4   32 1
    10    5    6 1
    11    5   10 1
    12    6    7 1
    13    7    8 ar
    14    8    9 ar
    15    9   35 1
    16   10   14 1
    17   10   11 2
    18   11   12 1
    19   12   13 2
    20   13   14 1
    21   13   22 1
    22   14   15 1
    23   15   16 1
    24   15   36 1
    25   15   37 1
    26   16   17 1
    27   16   21 1
    28   16   18 1
    29   18   19 1
    30   18   38 1
    31   18   39 1
    32   19   20 1
    33   19   40 1
    34   19   41 1
    35   20   21 1
    36   20   42 1
    37   20   43 1
    38   22   23 1
    39   23   24 1
    40   23   44 1
    41   23   45 1
    42   24   29 ar
    43   24   25 ar
    44   25   26 ar
    45   25   46 1
    46   26   27 ar
    47   26   47 1
    48   27   28 ar
    49   27   31 1
    50   28   29 ar
    51   28   48 1
    52   29   30 1
    53   32   49 1
    54   32   50 1
@<TRIPOS>MOLECULE
ZINC11097523
   50    52     0     0     0
SMALL
USER_CHARGES
N-[4-[(4-iodophenyl)carbamoyl]phenyl]-1-isopropyl-5-oxo-pyrrolidine-3-carboxamide
@<TRIPOS>ATOM
      1 C1         -2.4266   -6.6171    1.1459 C.3       1 <0>        -0.1686
      2 C2         -3.1266   -5.2932    1.4591 C.3       1 <0>         0.1524
      3 C3         -3.6836   -5.3352    2.8834 C.3       1 <0>        -0.1696
      4 N1         -2.1657   -4.1934    1.3428 N.am      1 <0>        -0.6159
      5 C4         -2.3041   -3.0680    0.4110 C.3       1 <0>         0.1177
      6 C5         -0.9008   -2.4276    0.3270 C.3       1 <0>        -0.1234
      7 H1         -0.3291   -2.8465   -0.5012 H         1 <0>         0.1266
      8 C6         -0.2862   -2.8356    1.6859 C.3       1 <0>        -0.1488
      9 C7         -1.0440   -4.0856    2.0755 C.2       1 <0>         0.5211
     10 O1         -0.6911   -4.8753    2.9257 O.2       1 <0>        -0.5193
     11 C8         -0.9984   -0.9285    0.2075 C.2       1 <0>         0.5297
     12 O2         -2.0820   -0.3999    0.0761 O.2       1 <0>        -0.5058
     13 N2          0.1186   -0.1752    0.2468 N.am      1 <0>        -0.6702
     14 C9          0.0222    1.2158    0.2329 C.ar      1 <0>         0.1745
     15 C10        -0.9709    1.8353   -0.5193 C.ar      1 <0>        -0.1276
     16 C11        -1.0724    3.2082   -0.5307 C.ar      1 <0>        -0.0638
     17 C12        -0.1695    3.9802    0.2057 C.ar      1 <0>        -0.1550
     18 C13         0.8304    3.3548    0.9557 C.ar      1 <0>        -0.0332
     19 C14         0.9229    1.9813    0.9668 C.ar      1 <0>        -0.1500
     20 C15        -0.2721    5.4522    0.1919 C.2       1 <0>         0.5637
     21 O3          0.5139    6.1225    0.8334 O.2       1 <0>        -0.5120
     22 N3         -1.2369    6.0537   -0.5319 N.am      1 <0>        -0.6717
     23 C16        -1.2697    7.4485   -0.6313 C.ar      1 <0>         0.1674
     24 C17        -2.4866    8.1107   -0.7289 C.ar      1 <0>        -0.1422
     25 C18        -2.5160    9.4884   -0.8207 C.ar      1 <0>        -0.0636
     26 C19        -1.3345   10.2079   -0.8276 C.ar      1 <0>        -0.1161
     27 C20        -0.1206    9.5507   -0.7367 C.ar      1 <0>        -0.0635
     28 C21        -0.0851    8.1736   -0.6385 C.ar      1 <0>        -0.1173
     29 I1         -1.3836   12.2971   -0.9751 I         1 <0>        -0.0415
     30 H2         -1.6100   -6.7721    1.8510 H         1 <0>         0.0716
     31 H3         -3.1415   -7.4354    1.2324 H         1 <0>         0.0698
     32 H4         -2.0298   -6.5872    0.1312 H         1 <0>         0.0568
     33 H5         -3.9432   -5.1382    0.7540 H         1 <0>         0.0904
     34 H6         -4.1823   -4.3920    3.1066 H         1 <0>         0.0571
     35 H7         -4.3985   -6.1535    2.9700 H         1 <0>         0.0698
     36 H8         -2.8670   -5.4902    3.5885 H         1 <0>         0.0719
     37 H9         -3.0255   -2.3467    0.7950 H         1 <0>         0.0917
     38 H10        -2.6143   -3.4268   -0.5704 H         1 <0>         0.0886
     39 H11         0.7761   -3.0526    1.5744 H         1 <0>         0.1136
     40 H12        -0.4404   -2.0499    2.4256 H         1 <0>         0.1095
     41 H13         0.9894   -0.6007    0.2846 H         1 <0>         0.4172
     42 H14        -1.6657    1.2383   -1.0914 H         1 <0>         0.1473
     43 H15        -1.8464    3.6883   -1.1109 H         1 <0>         0.1301
     44 H16         1.5294    3.9484    1.5261 H         1 <0>         0.1438
     45 H17         1.6954    1.4974    1.5461 H         1 <0>         0.1376
     46 H18        -1.9086    5.5193   -0.9837 H         1 <0>         0.4128
     47 H19        -3.4092    7.5492   -0.7281 H         1 <0>         0.1352
     48 H20        -3.4622   10.0042   -0.8918 H         1 <0>         0.1344
     49 H21         0.8002   10.1150   -0.7423 H         1 <0>         0.1337
     50 H22         0.8628    7.6611   -0.5669 H         1 <0>         0.1431
@<TRIPOS>BOND
     1    1    2 1
     2    1   30 1
     3    1   31 1
     4    1   32 1
     5    2    3 1
     6    2    4 1
     7    2   33 1
     8    3   34 1
     9    3   35 1
    10    3   36 1
    11    4    9 am
    12    4    5 1
    13    5    6 1
    14    5   37 1
    15    5   38 1
    16    6    7 1
    17    6    8 1
    18    6   11 1
    19    8    9 1
    20    8   39 1
    21    8   40 1
    22    9   10 2
    23   11   12 2
    24   11   13 am
    25   13   14 1
    26   13   41 1
    27   14   19 ar
    28   14   15 ar
    29   15   16 ar
    30   15   42 1
    31   16   17 ar
    32   16   43 1
    33   17   18 ar
    34   17   20 1
    35   18   19 ar
    36   18   44 1
    37   19   45 1
    38   20   21 2
    39   20   22 am
    40   22   23 1
    41   22   46 1
    42   23   28 ar
    43   23   24 ar
    44   24   25 ar
    45   24   47 1
    46   25   26 ar
    47   25   48 1
    48   26   27 ar
    49   26   29 1
    50   27   28 ar
    51   27   49 1
    52   28   50 1
@<TRIPOS>MOLECULE
ZINC22405238
   54    56     0     0     0
SMALL
USER_CHARGES
N-(2-bromophenyl)-4-methoxy-3-[[(1S,2S)-2-methylcyclohexyl]sulfamoyl]benzamide
@<TRIPOS>ATOM
      1 C1          2.6566    1.5657   -6.3252 C.3       1 <0>        -0.1541
      2 C2          4.0720    0.9852   -6.3507 C.3       1 <0>        -0.0935
      3 H1          4.0240   -0.1047   -6.2100 H         1 <0>         0.0820
      4 C3          4.7269    1.2972   -7.6978 C.3       1 <0>        -0.1142
      5 C4          6.1423    0.7167   -7.7233 C.3       1 <0>        -0.1235
      6 C5          6.9696    1.3403   -6.5974 C.3       1 <0>        -0.1205
      7 C6          6.3147    1.0283   -5.2503 C.3       1 <0>        -0.1358
      8 C7          4.8993    1.6088   -5.2248 C.3       1 <0>         0.1651
      9 H2          4.9277    2.7038   -5.3256 H         1 <0>         0.0743
     10 N1          4.2722    1.3101   -3.9350 N.pl3     1 <0>        -1.1127
     11 S1          4.3426    2.4158   -2.7043 S.o2      1 <0>         2.6969
     12 O1          3.6467    1.8446   -1.6048 O.2       1 <0>        -0.9467
     13 O2          5.6968    2.8365   -2.6132 O.2       1 <0>        -0.9510
     14 C8          3.4115    3.8223   -3.2137 C.ar      1 <0>        -0.7228
     15 C9          4.0457    5.0257   -3.4289 C.ar      1 <0>         0.0780
     16 C10         3.3072    6.1391   -3.8379 C.ar      1 <0>        -0.1942
     17 C11         1.9253    6.0293   -4.0163 C.ar      1 <0>         0.0077
     18 C12         1.2980    4.8241   -3.7935 C.ar      1 <0>        -0.2309
     19 C13         2.0372    3.7173   -3.3921 C.ar      1 <0>         0.2564
     20 O3          1.4151    2.5311   -3.1735 O.3       1 <0>        -0.3016
     21 C14         0.0010    2.4932   -3.3756 C.3       1 <0>         0.0170
     22 C15         3.9837    7.4288   -4.0761 C.2       1 <0>         0.5695
     23 O4          5.1860    7.5226   -3.9205 O.2       1 <0>        -0.5107
     24 N2          3.2689    8.5028   -4.4662 N.am      1 <0>        -0.6829
     25 C16         3.8921    9.7486   -4.5948 C.ar      1 <0>         0.1798
     26 C17         5.2098    9.8263   -5.0265 C.ar      1 <0>        -0.1188
     27 C18         5.8223   11.0577   -5.1524 C.ar      1 <0>        -0.0828
     28 C19         5.1250   12.2131   -4.8497 C.ar      1 <0>        -0.1293
     29 C20         3.8132   12.1400   -4.4192 C.ar      1 <0>        -0.0716
     30 C21         3.1923   10.9113   -4.2964 C.ar      1 <0>        -0.1228
     31 Br1         1.3954   10.8123   -3.7157 Br        1 <0>        -0.0468
     32 H3          2.0618    1.1174   -7.1347 H         1 <0>         0.0584
     33 H4          2.7047    2.6556   -6.4659 H         1 <0>         0.0517
     34 H5          2.1857    1.3414   -5.3567 H         1 <0>         0.0606
     35 H6          4.1321    0.8489   -8.5072 H         1 <0>         0.0671
     36 H7          4.7750    2.3871   -7.8385 H         1 <0>         0.0637
     37 H8          6.0942   -0.3732   -7.5826 H         1 <0>         0.0641
     38 H9          6.6132    0.9409   -8.6918 H         1 <0>         0.0641
     39 H10         7.9872    0.9230   -6.6158 H         1 <0>         0.0681
     40 H11         7.0176    2.4302   -6.7381 H         1 <0>         0.0641
     41 H12         6.2666   -0.0616   -5.1097 H         1 <0>         0.0718
     42 H13         6.9095    1.4765   -4.4408 H         1 <0>         0.0800
     43 H14         3.6176    0.4321   -3.8319 H         1 <0>         0.4416
     44 H15         5.1131    5.1075   -3.2861 H         1 <0>         0.1644
     45 H16         1.3504    6.8885   -4.3288 H         1 <0>         0.1358
     46 H17         0.2302    4.7384   -3.9311 H         1 <0>         0.1477
     47 H18        -0.3724    1.4801   -3.1652 H         1 <0>         0.1152
     48 H19        -0.2276    2.7591   -4.4182 H         1 <0>         0.0664
     49 H20        -0.4855    3.2112   -2.6989 H         1 <0>         0.0675
     50 H21         2.1955    8.3997   -4.6834 H         1 <0>         0.4318
     51 H22         5.7552    8.9247   -5.2631 H         1 <0>         0.1500
     52 H23         6.8470   11.1186   -5.4880 H         1 <0>         0.1347
     53 H24         5.6065   13.1747   -4.9495 H         1 <0>         0.1344
     54 H25         3.2716   13.0441   -4.1833 H         1 <0>         0.1371
@<TRIPOS>BOND
     1    1    2 1
     2    1   32 1
     3    1   33 1
     4    1   34 1
     5    2    3 1
     6    2    8 1
     7    2    4 1
     8    4    5 1
     9    4   35 1
    10    4   36 1
    11    5    6 1
    12    5   37 1
    13    5   38 1
    14    6    7 1
    15    6   39 1
    16    6   40 1
    17    7    8 1
    18    7   41 1
    19    7   42 1
    20    8    9 1
    21    8   10 1
    22   10   11 1
    23   10   43 1
    24   11   12 2
    25   11   13 2
    26   11   14 1
    27   14   19 ar
    28   14   15 ar
    29   15   16 ar
    30   15   44 1
    31   16   17 ar
    32   16   22 1
    33   17   18 ar
    34   17   45 1
    35   18   19 ar
    36   18   46 1
    37   19   20 1
    38   20   21 1
    39   21   47 1
    40   21   48 1
    41   21   49 1
    42   22   23 2
    43   22   24 am
    44   24   25 1
    45   24   50 1
    46   25   30 ar
    47   25   26 ar
    48   26   27 ar
    49   26   51 1
    50   27   28 ar
    51   27   52 1
    52   28   29 ar
    53   28   53 1
    54   29   30 ar
    55   29   54 1
    56   30   31 1
@<TRIPOS>MOLECULE
ZINC34899472
   77    82     0     0     0
SMALL
USER_CHARGES

@<TRIPOS>ATOM
      1 C1         -0.4866    1.1456   -0.1117 C.ar      1 <0>        -0.0916
      2 C2          0.6589    1.9211   -0.1387 C.ar      1 <0>        -0.1266
      3 C3          1.9013    1.3215   -0.1507 C.ar      1 <0>        -0.0590
      4 C4          2.0011   -0.0706   -0.1355 C.ar      1 <0>        -0.1384
      5 C5          0.8415   -0.8470   -0.1083 C.ar      1 <0>        -0.0864
      6 C6         -0.3947   -0.2348   -0.0966 C.ar      1 <0>        -0.1267
      7 C7          3.3292   -0.7200   -0.1487 C.2       1 <0>         0.5611
      8 O1          4.3374   -0.0413   -0.1728 O.2       1 <0>        -0.5320
      9 N1          3.4222   -2.0644   -0.1340 N.am      1 <0>        -0.7227
     10 C8          4.7383   -2.7079   -0.1470 C.3       1 <0>         0.1412
     11 H1          5.4435   -2.1042    0.4241 H         1 <0>         0.0964
     12 C9          5.2289   -2.8362   -1.5905 C.3       1 <0>        -0.1268
     13 C10         6.6033   -3.5082   -1.6042 C.3       1 <0>        -0.1193
     14 C11         6.4972   -4.8993   -0.9760 C.3       1 <0>        -0.1195
     15 C12         6.0066   -4.7709    0.4675 C.3       1 <0>        -0.1266
     16 C13         4.6321   -4.0989    0.4811 C.3       1 <0>         0.1402
     17 H2          3.9268   -4.7027   -0.0900 H         1 <0>         0.0955
     18 N2          4.1623   -3.9760    1.8633 N.am      1 <0>        -0.7255
     19 C14         3.5215   -5.0056    2.4513 C.2       1 <0>         0.5243
     20 O2          3.3337   -6.0339    1.8362 O.2       1 <0>        -0.5303
     21 C15         3.0382   -4.8792    3.8731 C.3       1 <0>        -0.1219
     22 H3          3.8867   -4.6878    4.5301 H         1 <0>         0.1017
     23 C16         2.0431   -3.7208    3.9733 C.3       1 <0>        -0.1095
     24 C17         1.5767   -3.5707    5.4231 C.3       1 <0>        -0.1365
     25 C18         0.8685   -4.8559    5.8632 C.3       1 <0>         0.0774
     26 N3          1.7687   -5.9942    5.6337 N.am      1 <0>        -0.6106
     27 C19         2.3473   -6.1795    4.2958 C.3       1 <0>         0.1330
     28 C20         2.0588   -6.8523    6.6316 C.2       1 <0>         0.5259
     29 O3          2.7249   -7.8407    6.4071 O.2       1 <0>        -0.5326
     30 C21         1.5557   -6.5837    8.0265 C.3       1 <0>        -0.0673
     31 C22         2.0677   -5.2218    8.4999 C.3       1 <0>        -0.1149
     32 C23         1.5568   -4.9491    9.9161 C.3       1 <0>        -0.0840
     33 C24         2.0639   -6.0410   10.8603 C.3       1 <0>        -0.1103
     34 C25         1.5519   -7.4028   10.3869 C.3       1 <0>        -0.0868
     35 C26         2.0628   -7.6755    8.9707 C.3       1 <0>        -0.0867
     36 C27         0.0219   -7.4000   10.3854 C.3       1 <0>        -0.1104
     37 C28        -0.4852   -6.3082    9.4412 C.3       1 <0>        -0.0839
     38 C29         0.0268   -4.9463    9.9146 C.3       1 <0>        -0.1104
     39 C30         0.0257   -6.5809    8.0251 C.3       1 <0>        -0.1166
     40 H4         -1.4568    1.6200   -0.0979 H         1 <0>         0.1286
     41 H5          0.5803    2.9982   -0.1508 H         1 <0>         0.1312
     42 H6          2.7947    1.9279   -0.1721 H         1 <0>         0.1363
     43 H7          0.9119   -1.9247   -0.0968 H         1 <0>         0.1231
     44 H8         -1.2927   -0.8344   -0.0756 H         1 <0>         0.1294
     45 H9          2.6177   -2.6060   -0.1147 H         1 <0>         0.4002
     46 H10         4.5236   -3.4400   -2.1617 H         1 <0>         0.0683
     47 H11         5.3045   -1.8452   -2.0381 H         1 <0>         0.0751
     48 H12         6.9529   -3.5997   -2.6326 H         1 <0>         0.0703
     49 H13         7.3086   -2.9045   -1.0330 H         1 <0>         0.0668
     50 H14         5.7919   -5.5030   -1.5472 H         1 <0>         0.0668
     51 H15         7.4764   -5.3780   -0.9857 H         1 <0>         0.0703
     52 H16         5.9309   -5.7620    0.9150 H         1 <0>         0.0752
     53 H17         6.7118   -4.1672    1.0386 H         1 <0>         0.0682
     54 H18         4.3125   -3.1537    2.3553 H         1 <0>         0.4013
     55 H19         2.5256   -2.7986    3.6497 H         1 <0>         0.0712
     56 H20         1.1836   -3.9242    3.3345 H         1 <0>         0.0725
     57 H21         2.4386   -3.3919    6.0659 H         1 <0>         0.0725
     58 H22         0.8860   -2.7308    5.4980 H         1 <0>         0.0832
     59 H23         0.6222   -4.7928    6.9231 H         1 <0>         0.1172
     60 H24        -0.0435   -4.9882    5.2811 H         1 <0>         0.0714
     61 H25         1.5559   -6.4203    3.5861 H         1 <0>         0.0767
     62 H26         3.0767   -6.9892    4.3216 H         1 <0>         0.0987
     63 H27         3.1577   -5.2238    8.5010 H         1 <0>         0.0674
     64 H28         1.7064   -4.4439    7.8273 H         1 <0>         0.0804
     65 H29         1.9216   -3.9789   10.2534 H         1 <0>         0.0747
     66 H30         3.1539   -6.0429   10.8614 H         1 <0>         0.0628
     67 H31         1.7000   -5.8467   11.8692 H         1 <0>         0.0646
     68 H32         1.9132   -8.1807   11.0596 H         1 <0>         0.0743
     69 H33         1.6980   -8.6457    8.6335 H         1 <0>         0.0697
     70 H34         3.1528   -7.6775    8.9718 H         1 <0>         0.0684
     71 H35        -0.3428   -8.3702   10.0482 H         1 <0>         0.0633
     72 H36        -0.3420   -7.2057   11.3943 H         1 <0>         0.0646
     73 H37        -1.5752   -6.3062    9.4402 H         1 <0>         0.0751
     74 H38        -0.3372   -4.7520   10.9235 H         1 <0>         0.0665
     75 H39        -0.3345   -4.1685    9.2420 H         1 <0>         0.0626
     76 H40        -0.3356   -5.8030    7.3524 H         1 <0>         0.0793
     77 H41        -0.3391   -7.5511    7.6878 H         1 <0>         0.0690
@<TRIPOS>BOND
     1    1    6 ar
     2    1    2 ar
     3    1   40 1
     4    2    3 ar
     5    2   41 1
     6    3    4 ar
     7    3   42 1
     8    4    5 ar
     9    4    7 1
    10    5    6 ar
    11    5   43 1
    12    6   44 1
    13    7    8 2
    14    7    9 am
    15    9   10 1
    16    9   45 1
    17   10   11 1
    18   10   16 1
    19   10   12 1
    20   12   13 1
    21   12   46 1
    22   12   47 1
    23   13   14 1
    24   13   48 1
    25   13   49 1
    26   14   15 1
    27   14   50 1
    28   14   51 1
    29   15   16 1
    30   15   52 1
    31   15   53 1
    32   16   17 1
    33   16   18 1
    34   18   19 am
    35   18   54 1
    36   19   20 2
    37   19   21 1
    38   21   22 1
    39   21   27 1
    40   21   23 1
    41   23   24 1
    42   23   55 1
    43   23   56 1
    44   24   25 1
    45   24   57 1
    46   24   58 1
    47   25   26 1
    48   25   59 1
    49   25   60 1
    50   26   27 1
    51   26   28 am
    52   27   61 1
    53   27   62 1
    54   28   29 2
    55   28   30 1
    56   30   35 1
    57   30   39 1
    58   30   31 1
    59   31   32 1
    60   31   63 1
    61   31   64 1
    62   32   38 1
    63   32   33 1
    64   32   65 1
    65   33   34 1
    66   33   66 1
    67   33   67 1
    68   34   35 1
    69   34   36 1
    70   34   68 1
    71   35   69 1
    72   35   70 1
    73   36   37 1
    74   36   71 1
    75   36   72 1
    76   37   38 1
    77   37   39 1
    78   37   73 1
    79   38   74 1
    80   38   75 1
    81   39   76 1
    82   39   77 1
@<TRIPOS>MOLECULE
ZINC39425997
   56    59     0     0     0
SMALL
USER_CHARGES

@<TRIPOS>ATOM
      1 C1         -1.4329   -0.9297   -0.0764 C.3       1 <0>        -0.1535
      2 C2          0.0625   -1.0195    0.2346 C.3       1 <0>        -0.0885
      3 C3          0.8506   -1.1156   -1.0733 C.3       1 <0>        -0.1392
      4 S1          0.5807    0.4612    1.1454 S.3       1 <0>         0.0781
      5 C4         -0.2947    0.3517    2.6706 C.2       1 <0>         0.0491
      6 N1         -1.1384   -0.5742    3.1044 N.2       1 <0>        -0.2780
      7 N2         -1.6846   -0.4992    4.2388 N.2       1 <0>        -0.2292
      8 C5         -1.4498    0.5071    5.0651 C.2       1 <0>         0.2173
      9 S2         -0.2930    1.4551    4.0807 S.3       1 <0>         0.0691
     10 N3         -1.9544    0.7553    6.3396 N.pl3     1 <0>        -0.4252
     11 C6         -3.0840    1.5172    6.4874 C.2       1 <0>         0.2171
     12 C7         -3.3700    2.1011    7.6707 C.2       1 <0>        -0.2290
     13 C8         -2.4567    1.9330    8.8586 C.3       1 <0>         0.0942
     14 H1         -3.0593    1.7714    9.7524 H         1 <0>         0.1029
     15 C9         -1.5319    0.7667    8.6715 C.2       1 <0>        -0.2193
     16 C10        -1.3178    0.2287    7.4413 C.2       1 <0>         0.4740
     17 N4         -0.4629   -0.8375    7.2954 N.pl3     1 <0>        -0.8456
     18 C11        -0.8663    0.2068    9.8091 C.1       1 <0>         0.2694
     19 N5         -0.3382   -0.2373   10.7115 N.1       1 <0>        -0.4323
     20 C12        -1.6392    3.1868    9.0344 C.ar      1 <0>        -0.0566
     21 C13        -0.8060    3.6168    8.0182 C.ar      1 <0>        -0.1027
     22 C14        -0.0559    4.7666    8.1787 C.ar      1 <0>        -0.1072
     23 C15        -0.1381    5.4871    9.3555 C.ar      1 <0>        -0.1116
     24 C16        -0.9715    5.0575   10.3725 C.ar      1 <0>        -0.0311
     25 C17        -1.7268    3.9096   10.2089 C.ar      1 <0>        -0.0898
     26 Cl1        -1.0752    5.9618   11.8507 Cl        1 <0>        -0.0694
     27 C18        -4.5248    2.8867    7.8305 C.2       1 <0>         0.4059
     28 O1         -4.7622    3.3843    8.9134 O.2       1 <0>        -0.4486
     29 C19        -5.4718    3.1234    6.6860 C.3       1 <0>        -0.1594
     30 C20        -4.6921    3.0443    5.3693 C.3       1 <0>        -0.0522
     31 C21        -3.9982    1.6821    5.2983 C.3       1 <0>        -0.0870
     32 C22        -3.6441    4.1582    5.3244 C.3       1 <0>        -0.1558
     33 C23        -5.6566    3.1922    4.1908 C.3       1 <0>        -0.1416
     34 H2         -1.6253   -0.0444   -0.6825 H         1 <0>         0.0686
     35 H3         -1.7442   -1.8194   -0.6237 H         1 <0>         0.0752
     36 H4         -1.9943   -0.8612    0.8553 H         1 <0>         0.0706
     37 H5          0.2550   -1.9048    0.8407 H         1 <0>         0.1085
     38 H6          0.6581   -0.2304   -1.6794 H         1 <0>         0.0708
     39 H7          1.9159   -1.1796   -0.8517 H         1 <0>         0.0706
     40 H8          0.5392   -2.0054   -1.6205 H         1 <0>         0.0870
     41 H9         -0.2397   -1.1625    6.4092 H         1 <0>         0.4045
     42 H10        -0.0826   -1.2650    8.0787 H         1 <0>         0.4241
     43 H11        -0.7410    3.0537    7.0989 H         1 <0>         0.1132
     44 H12         0.5947    5.1019    7.3846 H         1 <0>         0.1301
     45 H13         0.4486    6.3851    9.4811 H         1 <0>         0.1323
     46 H14        -2.3810    3.5761   11.0009 H         1 <0>         0.1344
     47 H15        -6.2517    2.3620    6.6944 H         1 <0>         0.1062
     48 H16        -5.9228    4.1108    6.7841 H         1 <0>         0.1041
     49 H17        -3.4141    1.6200    4.3801 H         1 <0>         0.0839
     50 H18        -4.7485    0.8915    5.3049 H         1 <0>         0.1095
     51 H19        -2.9547    4.0423    6.1607 H         1 <0>         0.0625
     52 H20        -3.0913    4.0994    4.3869 H         1 <0>         0.0605
     53 H21        -4.1399    5.1264    5.3938 H         1 <0>         0.0681
     54 H22        -6.1628    4.1554    4.2543 H         1 <0>         0.0680
     55 H23        -5.0993    3.1355    3.2558 H         1 <0>         0.0605
     56 H24        -6.3949    2.3909    4.2229 H         1 <0>         0.0626
@<TRIPOS>BOND
     1    1    2 1
     2    1   34 1
     3    1   35 1
     4    1   36 1
     5    2    3 1
     6    2    4 1
     7    2   37 1
     8    3   38 1
     9    3   39 1
    10    3   40 1
    11    4    5 1
    12    5    9 1
    13    5    6 2
    14    6    7 1
    15    7    8 2
    16    8    9 1
    17    8   10 1
    18   10   16 1
    19   10   11 1
    20   11   31 1
    21   11   12 2
    22   12   13 1
    23   12   27 1
    24   13   14 1
    25   13   15 1
    26   13   20 1
    27   15   16 2
    28   15   18 1
    29   16   17 1
    30   17   41 1
    31   17   42 1
    32   18   19 3
    33   20   25 ar
    34   20   21 ar
    35   21   22 ar
    36   21   43 1
    37   22   23 ar
    38   22   44 1
    39   23   24 ar
    40   23   45 1
    41   24   25 ar
    42   24   26 1
    43   25   46 1
    44   27   28 2
    45   27   29 1
    46   29   30 1
    47   29   47 1
    48   29   48 1
    49   30   31 1
    50   30   32 1
    51   30   33 1
    52   31   49 1
    53   31   50 1
    54   32   51 1
    55   32   52 1
    56   32   53 1
    57   33   54 1
    58   33   55 1
    59   33   56 1
@<TRIPOS>MOLECULE
ZINC22744656
   65    68     0     0     0
SMALL
USER_CHARGES

@<TRIPOS>ATOM
      1 C1         -1.1393   -7.2457   -5.0266 C.3       1 <0>        -0.1216
      2 C2         -1.4316   -6.5167   -3.7405 C.ar      1 <0>        -0.0593
      3 C3         -0.9406   -5.2377   -3.5469 C.ar      1 <0>        -0.1261
      4 C4         -1.2045   -4.5648   -2.3718 C.ar      1 <0>        -0.0580
      5 C5         -1.9686   -5.1771   -1.3771 C.ar      1 <0>        -0.1398
      6 C6         -2.4609   -6.4675   -1.5788 C.ar      1 <0>        -0.0922
      7 C7         -2.1944   -7.1271   -2.7608 C.ar      1 <0>        -0.1279
      8 C8         -2.2549   -4.4620   -0.1151 C.2       1 <0>         0.5628
      9 O1         -2.4078   -3.2562   -0.1210 O.2       1 <0>        -0.5317
     10 N1         -2.3464   -5.1472    1.0419 N.am      1 <0>        -0.6066
     11 C9         -2.0506   -6.5862    1.0843 C.3       1 <0>         0.0730
     12 C10        -0.9703   -6.8334    2.1446 C.3       1 <0>         0.1064
     13 N2         -1.3671   -6.1549    3.3864 N.pl3     1 <0>        -0.6271
     14 C11        -1.6629   -4.7160    3.3439 C.3       1 <0>         0.1070
     15 C12        -2.7378   -4.4676    2.2848 C.3       1 <0>         0.0952
     16 C13        -1.4621   -6.8663    4.5874 C.ar      1 <0>         0.2308
     17 C14        -1.9616   -6.2452    5.7248 C.ar      1 <0>        -0.1897
     18 C15        -2.0552   -6.9472    6.9100 C.ar      1 <0>        -0.0176
     19 C16        -1.6499   -8.2742    6.9648 C.ar      1 <0>         0.0557
     20 C17        -1.1505   -8.8953    5.8277 C.ar      1 <0>        -0.0658
     21 C18        -1.0621   -8.1952    4.6410 C.ar      1 <0>        -0.1957
     22 N3         -1.7445   -8.9865    8.1678 N.pl3     1 <0>        -0.6125
     23 C19        -2.8305   -8.8421    8.9528 C.2       1 <0>         0.5095
     24 S1         -4.1553   -7.8996    8.4164 S.2       1 <0>        -0.4919
     25 N4         -2.8736   -9.4396   10.1601 N.am      1 <0>        -0.6413
     26 C20        -3.9595   -9.2952   10.9451 C.2       1 <0>         0.5354
     27 O2         -4.8999   -8.6262   10.5644 O.2       1 <0>        -0.3997
     28 C21        -4.0068   -9.9503   12.2689 C.ar      1 <0>        -0.1276
     29 C22        -2.9258  -10.7149   12.7118 C.ar      1 <0>        -0.0989
     30 C23        -2.9762  -11.3234   13.9487 C.ar      1 <0>        -0.0851
     31 C24        -4.0949  -11.1774   14.7499 C.ar      1 <0>        -0.0912
     32 C25        -5.1697  -10.4211   14.3171 C.ar      1 <0>        -0.0831
     33 C26        -5.1302   -9.8028   13.0845 C.ar      1 <0>        -0.0604
     34 C27        -6.3837  -10.2677   15.1966 C.3       1 <0>        -0.1184
     35 C28        -1.8106  -12.1494   14.4283 C.3       1 <0>        -0.1173
     36 H1         -1.9209   -7.0266   -5.7541 H         1 <0>         0.0761
     37 H2         -0.1762   -6.9190   -5.4186 H         1 <0>         0.0704
     38 H3         -1.1096   -8.3187   -4.8374 H         1 <0>         0.0703
     39 H4         -0.3492   -4.7652   -4.3172 H         1 <0>         0.1307
     40 H5         -0.8204   -3.5666   -2.2217 H         1 <0>         0.1327
     41 H6         -3.0527   -6.9468   -0.8130 H         1 <0>         0.1354
     42 H7         -2.5784   -8.1239   -2.9199 H         1 <0>         0.1303
     43 H8         -2.9535   -7.1377    1.3465 H         1 <0>         0.0783
     44 H9         -1.6887   -6.9142    0.1099 H         1 <0>         0.1127
     45 H10        -0.8749   -7.9038    2.3269 H         1 <0>         0.0975
     46 H11        -0.0181   -6.4327    1.7970 H         1 <0>         0.0688
     47 H12        -2.0248   -4.3880    4.3183 H         1 <0>         0.0998
     48 H13        -0.7600   -4.1645    3.0817 H         1 <0>         0.0692
     49 H14        -2.8295   -3.3968    2.1029 H         1 <0>         0.1051
     50 H15        -3.6907   -4.8648    2.6344 H         1 <0>         0.0760
     51 H16        -2.2765   -5.2130    5.6823 H         1 <0>         0.1292
     52 H17        -2.4433   -6.4642    7.7945 H         1 <0>         0.1403
     53 H18        -0.8353   -9.9274    5.8705 H         1 <0>         0.1236
     54 H19        -0.6782   -8.6797    3.7554 H         1 <0>         0.1279
     55 H20        -1.0284   -9.5835    8.4356 H         1 <0>         0.4043
     56 H21        -2.1230   -9.9736   10.4640 H         1 <0>         0.4081
     57 H22        -2.0522  -10.8299   12.0872 H         1 <0>         0.1209
     58 H23        -4.1294  -11.6562   15.7174 H         1 <0>         0.1301
     59 H24        -5.9681   -9.2094   12.7496 H         1 <0>         0.1404
     60 H25        -6.2605   -9.3943   15.8370 H         1 <0>         0.0758
     61 H26        -7.2694  -10.1397   14.5742 H         1 <0>         0.0722
     62 H27        -6.4995  -11.1580   15.8146 H         1 <0>         0.0706
     63 H28        -1.1132  -11.5123   14.9723 H         1 <0>         0.0746
     64 H29        -2.1716  -12.9388   15.0876 H         1 <0>         0.0711
     65 H30        -1.3040  -12.5945   13.5720 H         1 <0>         0.0682
@<TRIPOS>BOND
     1    1    2 1
     2    1   36 1
     3    1   37 1
     4    1   38 1
     5    2    7 ar
     6    2    3 ar
     7    3    4 ar
     8    3   39 1
     9    4    5 ar
    10    4   40 1
    11    5    6 ar
    12    5    8 1
    13    6    7 ar
    14    6   41 1
    15    7   42 1
    16    8    9 2
    17    8   10 am
    18   10   15 1
    19   10   11 1
    20   11   12 1
    21   11   43 1
    22   11   44 1
    23   12   13 1
    24   12   45 1
    25   12   46 1
    26   13   14 1
    27   13   16 1
    28   14   15 1
    29   14   47 1
    30   14   48 1
    31   15   49 1
    32   15   50 1
    33   16   21 ar
    34   16   17 ar
    35   17   18 ar
    36   17   51 1
    37   18   19 ar
    38   18   52 1
    39   19   20 ar
    40   19   22 1
    41   20   21 ar
    42   20   53 1
    43   21   54 1
    44   22   23 1
    45   22   55 1
    46   23   24 2
    47   23   25 1
    48   25   26 am
    49   25   56 1
    50   26   27 2
    51   26   28 1
    52   28   33 ar
    53   28   29 ar
    54   29   30 ar
    55   29   57 1
    56   30   31 ar
    57   30   35 1
    58   31   32 ar
    59   31   58 1
    60   32   33 ar
    61   32   34 1
    62   33   59 1
    63   34   60 1
    64   34   61 1
    65   34   62 1
    66   35   63 1
    67   35   64 1
    68   35   65 1
@<TRIPOS>MOLECULE
ZINC09905121
   46    48     0     0     0
SMALL
USER_CHARGES
3-[3-(2-bromophenyl)prop-2-enoylamino]-4-pyrrolidin-1-yl-benzamide
@<TRIPOS>ATOM
      1 C1          2.5056    1.4299   -0.5062 C.ar      1 <0>        -0.1061
      2 C2          1.4446    2.1030   -1.0875 C.ar      1 <0>        -0.1002
      3 C3          0.4172    1.4004   -1.6913 C.ar      1 <0>        -0.0919
      4 C4          0.4428    0.0206   -1.7182 C.ar      1 <0>        -0.0716
      5 C5          1.5118   -0.6666   -1.1326 C.ar      1 <0>        -0.0520
      6 C6          2.5463    0.0521   -0.5245 C.ar      1 <0>        -0.0947
      7 C7          1.5474   -2.1375   -1.1561 C.2       1 <0>        -0.0189
      8 C8          2.5795   -2.7962   -0.5907 C.2       1 <0>        -0.2062
      9 C9          2.6148   -4.2591   -0.6140 C.2       1 <0>         0.5433
     10 O1          1.7127   -4.8814   -1.1438 O.2       1 <0>        -0.5112
     11 N1          3.6462   -4.9174   -0.0489 N.am      1 <0>        -0.6612
     12 C10         3.6246   -6.3156    0.0323 C.ar      1 <0>         0.1248
     13 C11         2.4180   -6.9899    0.0330 C.ar      1 <0>        -0.0479
     14 C12         2.4007   -8.3851    0.1141 C.ar      1 <0>        -0.1448
     15 C13         3.6030   -9.0935    0.1943 C.ar      1 <0>        -0.0763
     16 C14         4.8031   -8.4179    0.1938 C.ar      1 <0>        -0.1558
     17 C15         4.8233   -7.0306    0.1069 C.ar      1 <0>         0.1009
     18 N2          6.0392   -6.3520    0.1004 N.pl3     1 <0>        -0.4721
     19 C16         7.1783   -7.3015    0.0159 C.3       1 <0>         0.0310
     20 C17         8.3397   -6.4165   -0.5023 C.3       1 <0>        -0.1249
     21 C18         7.6353   -5.4735   -1.5045 C.3       1 <0>        -0.1322
     22 C19         6.1527   -5.4791   -1.0881 C.3       1 <0>         0.0363
     23 C20         1.1153   -9.1090    0.1157 C.2       1 <0>         0.5647
     24 O2          0.0699   -8.4919    0.0463 O.2       1 <0>        -0.5341
     25 N3          1.0997  -10.4544    0.1940 N.am      1 <0>        -0.8526
     26 Br1        -0.9622   -0.9381   -2.5444 Br        1 <0>        -0.0339
     27 H1          3.3037    1.9858   -0.0369 H         1 <0>         0.1349
     28 H2          1.4189    3.1826   -1.0696 H         1 <0>         0.1361
     29 H3         -0.4047    1.9329   -2.1466 H         1 <0>         0.1384
     30 H4          3.3746   -0.4711   -0.0701 H         1 <0>         0.1369
     31 H5          0.7470   -2.6896   -1.6261 H         1 <0>         0.1477
     32 H6          3.3799   -2.2441   -0.1206 H         1 <0>         0.1343
     33 H7          4.4036   -4.4229    0.3016 H         1 <0>         0.4160
     34 H8          1.4906   -6.4399   -0.0295 H         1 <0>         0.1634
     35 H9          3.5908  -10.1716    0.2571 H         1 <0>         0.1291
     36 H10         5.7308   -8.9675    0.2558 H         1 <0>         0.1399
     37 H11         7.4138   -7.7083    0.9993 H         1 <0>         0.0927
     38 H12         6.9600   -8.1022   -0.6907 H         1 <0>         0.0643
     39 H13         9.0916   -7.0234   -1.0067 H         1 <0>         0.0790
     40 H14         8.7855   -5.8482    0.3141 H         1 <0>         0.0789
     41 H15         7.7443   -5.8521   -2.5208 H         1 <0>         0.0729
     42 H16         8.0457   -4.4665   -1.4290 H         1 <0>         0.0782
     43 H17         5.5408   -5.8744   -1.8989 H         1 <0>         0.0576
     44 H18         5.8302   -4.4682   -0.8387 H         1 <0>         0.0818
     45 H19         1.9337  -10.9467    0.2493 H         1 <0>         0.3997
     46 H20         0.2545  -10.9304    0.1950 H         1 <0>         0.4056
@<TRIPOS>BOND
     1    1    6 ar
     2    1    2 ar
     3    1   27 1
     4    2    3 ar
     5    2   28 1
     6    3    4 ar
     7    3   29 1
     8    4    5 ar
     9    4   26 1
    10    5    6 ar
    11    5    7 1
    12    6   30 1
    13    7    8 2
    14    7   31 1
    15    8    9 1
    16    8   32 1
    17    9   10 2
    18    9   11 am
    19   11   12 1
    20   11   33 1
    21   12   17 ar
    22   12   13 ar
    23   13   14 ar
    24   13   34 1
    25   14   15 ar
    26   14   23 1
    27   15   16 ar
    28   15   35 1
    29   16   17 ar
    30   16   36 1
    31   17   18 1
    32   18   22 1
    33   18   19 1
    34   19   20 1
    35   19   37 1
    36   19   38 1
    37   20   21 1
    38   20   39 1
    39   20   40 1
    40   21   22 1
    41   21   41 1
    42   21   42 1
    43   22   43 1
    44   22   44 1
    45   23   24 2
    46   23   25 am
    47   25   45 1
    48   25   46 1
@<TRIPOS>MOLECULE
ZINC18597318
   46    47     0     0     0
SMALL
USER_CHARGES
(2S)-2-[[4-(4-bromophenyl)-3H-imidazol-2-yl]sulfanyl]-N-(tert-butylcarbamoyl)propanamide
@<TRIPOS>ATOM
      1 C1         -3.5873    2.8246    1.3589 C.3       1 <0>        -0.1466
      2 C2         -3.4471    3.6117    0.0544 C.3       1 <0>        -0.1029
      3 H1         -3.4891    2.9247   -0.7907 H         1 <0>         0.1306
      4 C3         -4.5709    4.6099   -0.0533 C.2       1 <0>         0.5404
      5 O1         -4.3781    5.7727    0.2304 O.2       1 <0>        -0.4484
      6 N1         -5.7903    4.2100   -0.4650 N.am      1 <0>        -0.6855
      7 C4         -6.7954    5.1027   -0.5613 C.2       1 <0>         0.6962
      8 O2         -6.6021    6.2684   -0.2769 O.2       1 <0>        -0.5204
      9 N2         -8.0148    4.7028   -0.9731 N.am      1 <0>        -0.7297
     10 C5         -9.1073    5.6732   -1.0778 C.3       1 <0>         0.1841
     11 C6         -8.7222    6.7693   -2.0733 C.3       1 <0>        -0.1675
     12 C7        -10.3736    4.9650   -1.5636 C.3       1 <0>        -0.1556
     13 C8         -9.3672    6.2986    0.2942 C.3       1 <0>        -0.1673
     14 S1         -1.8616    4.4847    0.0440 S.3       1 <0>         0.0632
     15 C9         -0.7567    3.1123    0.0260 C.2       1 <0>         0.1937
     16 N3          0.6027    3.1878    0.0134 N.pl3     1 <0>        -0.5491
     17 H2          1.1530    4.0228    0.0126 H         1 <0>         0.4315
     18 C10         1.0773    1.8873    0.0019 C.2       1 <0>         0.0198
     19 C11        -0.0126    1.0758    0.0080 C.2       1 <0>         0.0203
     20 N4         -1.1079    1.8460    0.0167 N.2       1 <0>        -0.4842
     21 C12         2.4931    1.4642   -0.0139 C.ar      1 <0>         0.0071
     22 C13         3.5104    2.4203   -0.0237 C.ar      1 <0>        -0.1157
     23 C14         4.8301    2.0189   -0.0331 C.ar      1 <0>        -0.0799
     24 C15         5.1466    0.6711   -0.0439 C.ar      1 <0>        -0.0929
     25 C16         4.1424   -0.2819   -0.0395 C.ar      1 <0>        -0.0797
     26 C17         2.8190    0.1066   -0.0248 C.ar      1 <0>        -0.0967
     27 Br1         6.9583    0.1297   -0.0653 Br        1 <0>        -0.0444
     28 H3         -3.5453    3.5117    2.2041 H         1 <0>         0.0716
     29 H4         -4.5421    2.2989    1.3652 H         1 <0>         0.0716
     30 H5         -2.7744    2.1026    1.4368 H         1 <0>         0.0979
     31 H6         -5.9446    3.2796   -0.6920 H         1 <0>         0.4117
     32 H7         -8.1691    3.7724   -1.2001 H         1 <0>         0.3979
     33 H8         -8.5371    6.3237   -3.0507 H         1 <0>         0.0547
     34 H9         -9.5351    7.4913   -2.1512 H         1 <0>         0.0664
     35 H10        -7.8201    7.2738   -1.7272 H         1 <0>         0.0798
     36 H11       -10.6480    4.1841   -0.8543 H         1 <0>         0.0635
     37 H12       -11.1865    5.6870   -1.6415 H         1 <0>         0.0779
     38 H13       -10.1885    4.5195   -2.5409 H         1 <0>         0.0635
     39 H14        -8.4650    6.8031    0.6402 H         1 <0>         0.0798
     40 H15       -10.1800    7.0206    0.2162 H         1 <0>         0.0664
     41 H16        -9.6416    5.5177    1.0034 H         1 <0>         0.0547
     42 H17         0.0021   -0.0041    0.0020 H         1 <0>         0.1801
     43 H18         3.2647    3.4720   -0.0198 H         1 <0>         0.1257
     44 H19         5.6180    2.7576   -0.0366 H         1 <0>         0.1371
     45 H20         4.3957   -1.3317   -0.0480 H         1 <0>         0.1399
     46 H21         2.0364   -0.6378   -0.0222 H         1 <0>         0.1396
@<TRIPOS>BOND
     1    1    2 1
     2    1   28 1
     3    1   29 1
     4    1   30 1
     5    2    3 1
     6    2    4 1
     7    2   14 1
     8    4    5 2
     9    4    6 am
    10    6    7 am
    11    6   31 1
    12    7    8 2
    13    7    9 am
    14    9   10 1
    15    9   32 1
    16   10   11 1
    17   10   12 1
    18   10   13 1
    19   11   33 1
    20   11   34 1
    21   11   35 1
    22   12   36 1
    23   12   37 1
    24   12   38 1
    25   13   39 1
    26   13   40 1
    27   13   41 1
    28   14   15 1
    29   15   20 2
    30   15   16 1
    31   16   17 1
    32   16   18 1
    33   18   19 2
    34   18   21 1
    35   19   20 1
    36   19   42 1
    37   21   26 ar
    38   21   22 ar
    39   22   23 ar
    40   22   43 1
    41   23   24 ar
    42   23   44 1
    43   24   25 ar
    44   24   27 1
    45   25   26 ar
    46   25   45 1
    47   26   46 1
@<TRIPOS>MOLECULE
ZINC33010946
   51    55     0     0     0
SMALL
USER_CHARGES
(2S,4S)-1-[(4-chlorophenyl)sulfanylmethylBLAHyl]-4-hydroxy-pyrrolidine-2-carboxamide
@<TRIPOS>ATOM
      1 C1         -3.7416    3.1855    1.7797 C.ar      1 <0>        -0.1226
      2 C2         -4.9424    3.8248    2.0165 C.ar      1 <0>        -0.0875
      3 C3         -5.4426    3.9059    3.3044 C.ar      1 <0>        -0.0408
      4 C4         -4.7440    3.3423    4.3578 C.ar      1 <0>        -0.0882
      5 C5         -3.5450    2.6975    4.1266 C.ar      1 <0>        -0.0862
      6 C6         -3.0402    2.6145    2.8346 C.ar      1 <0>        -0.0824
      7 S1         -1.5103    1.7930    2.5357 S.3       1 <0>        -0.0645
      8 C7         -1.2752    1.9419    0.7431 C.3       1 <0>        -0.0459
      9 C8          0.0154    1.2714    0.3484 C.ar      1 <0>         0.3543
     10 N1          1.1310    1.9789    0.3306 N.ar      1 <0>        -0.5472
     11 C9          2.2952    1.4503   -0.0121 C.ar      1 <0>         0.3953
     12 C10         2.3481    0.0759   -0.3728 C.ar      1 <0>        -0.1251
     13 C11         3.5179   -0.7179   -0.7838 C.2       1 <0>        -0.0799
     14 C12         3.3024   -2.0112   -1.0725 C.2       1 <0>        -0.1743
     15 S2          1.5582   -2.2563   -0.8266 S.3       1 <0>         0.1555
     16 C13         1.1222   -0.6121   -0.3301 C.ar      1 <0>         0.1121
     17 N2          0.0041   -0.0069    0.0234 N.ar      1 <0>        -0.4589
     18 C14         4.5667   -2.7221   -1.4753 C.3       1 <0>        -0.0395
     19 C15         5.7035   -1.7978   -0.9867 C.3       1 <0>        -0.1145
     20 C16         5.0077   -0.4226   -0.9806 C.3       1 <0>        -0.0491
     21 N3          3.4425    2.2228   -0.0188 N.pl3     1 <0>        -0.4354
     22 C17         3.8277    2.6115    1.3553 C.3       1 <0>         0.0496
     23 C18         4.4455    4.0195    1.2700 C.3       1 <0>         0.1123
     24 H1          3.9882    4.7488    1.9549 H         1 <0>         0.0729
     25 C19         4.3559    4.4100   -0.2231 C.3       1 <0>        -0.1374
     26 C20         3.2233    3.4952   -0.7531 C.3       1 <0>         0.0526
     27 H2          2.2056    3.8844   -0.6021 H         1 <0>         0.1026
     28 C21         3.3624    3.2827   -2.2386 C.2       1 <0>         0.5178
     29 O1          3.6207    2.1798   -2.6718 O.2       1 <0>        -0.5234
     30 N4          3.1999    4.3184   -3.0856 N.am      1 <0>        -0.8781
     31 O2          5.8100    3.9890    1.6936 O.3       1 <0>        -0.5968
     32 Cl1        -6.9490    4.7167    3.5992 Cl        1 <0>        -0.0648
     33 H3         -3.3497    3.1261    0.7750 H         1 <0>         0.1319
     34 H4         -5.4896    4.2659    1.1965 H         1 <0>         0.1382
     35 H5         -5.1368    3.4072    5.3617 H         1 <0>         0.1409
     36 H6         -2.9999    2.2585    4.9492 H         1 <0>         0.1388
     37 H7         -2.1143    1.4579    0.2218 H         1 <0>         0.1213
     38 H8         -1.2357    3.0056    0.4656 H         1 <0>         0.1197
     39 H9          4.6032   -3.7086   -0.9900 H         1 <0>         0.0830
     40 H10         4.5833   -2.8501   -2.5677 H         1 <0>         0.0898
     41 H11         6.0348   -2.1203    0.0114 H         1 <0>         0.0772
     42 H12         6.5483   -1.8529   -1.6890 H         1 <0>         0.0857
     43 H13         5.1539    0.1056   -1.9343 H         1 <0>         0.0923
     44 H14         5.3691    0.2066   -0.1539 H         1 <0>         0.0793
     45 H15         2.9353    2.6174    1.9984 H         1 <0>         0.0727
     46 H16         4.5587    1.8900    1.7492 H         1 <0>         0.1048
     47 H17         4.1116    5.4791   -0.3084 H         1 <0>         0.0890
     48 H18         5.3218    4.2145   -0.7119 H         1 <0>         0.0971
     49 H19         3.3014    4.1633   -4.1699 H         1 <0>         0.4248
     50 H20         2.9658    5.3188   -2.6926 H         1 <0>         0.4179
     51 H21         6.4060    4.9135    1.6958 H         1 <0>         0.4129
@<TRIPOS>BOND
     1    1    6 ar
     2    1    2 ar
     3    1   33 1
     4    2    3 ar
     5    2   34 1
     6    3    4 ar
     7    3   32 1
     8    4    5 ar
     9    4   35 1
    10    5    6 ar
    11    5   36 1
    12    6    7 1
    13    7    8 1
    14    8    9 1
    15    8   37 1
    16    8   38 1
    17    9   17 ar
    18    9   10 ar
    19   10   11 ar
    20   11   12 ar
    21   11   21 1
    22   12   16 ar
    23   12   13 1
    24   13   20 1
    25   13   14 2
    26   14   15 1
    27   14   18 1
    28   15   16 1
    29   16   17 ar
    30   18   19 1
    31   18   39 1
    32   18   40 1
    33   19   20 1
    34   19   41 1
    35   19   42 1
    36   20   43 1
    37   20   44 1
    38   21   26 1
    39   21   22 1
    40   22   23 1
    41   22   45 1
    42   22   46 1
    43   23   24 1
    44   23   25 1
    45   23   31 1
    46   25   26 1
    47   25   47 1
    48   25   48 1
    49   26   27 1
    50   26   28 1
    51   28   29 2
    52   28   30 am
    53   30   49 1
    54   30   50 1
    55   31   51 1
@<TRIPOS>MOLECULE
ZINC49152305
   35    35     0     0     0
SMALL
USER_CHARGES

@<TRIPOS>ATOM
      1 C1         -0.2219    1.8574    0.0864 C.3       1 <0>        -0.1508
      2 C2         -0.3170    0.3393    0.2520 C.3       1 <0>        -0.1111
      3 C3          0.2857   -0.0656    1.5987 C.3       1 <0>        -0.1457
      4 C4         -1.7852   -0.0883    0.2011 C.3       1 <0>         0.1367
      5 N1         -2.3294    0.1913   -1.1300 N.am      1 <0>        -0.7353
      6 C5         -3.6144   -0.1048   -1.4085 C.2       1 <0>         0.7191
      7 O1         -4.3220   -0.6040   -0.5550 O.2       1 <0>        -0.5672
      8 N2         -4.1151    0.1524   -2.6331 N.am      1 <0>        -0.5165
      9 N3         -3.2998    0.7275   -3.6166 N.pl3     1 <0>        -0.9089
     10 S1         -3.1075   -0.0271   -5.0780 S.o2      1 <0>         2.6894
     11 O2         -2.3619    0.8614   -5.8990 O.2       1 <0>        -0.9126
     12 O3         -2.6733   -1.3508   -4.7976 O.2       1 <0>        -0.9262
     13 C6         -4.7056   -0.1652   -5.8073 C.ar      1 <0>        -0.6591
     14 C7         -5.2600   -1.4124   -6.0261 C.ar      1 <0>         0.0173
     15 C8         -6.5143   -1.5208   -6.5985 C.ar      1 <0>        -0.1012
     16 C9         -7.2142   -0.3809   -6.9521 C.ar      1 <0>        -0.0241
     17 C10        -6.6602    0.8658   -6.7329 C.ar      1 <0>        -0.0997
     18 C11        -5.4077    0.9744   -6.1555 C.ar      1 <0>         0.0074
     19 Br1        -4.6525    2.6807   -5.8489 Br        1 <0>        -0.0043
     20 Br2        -7.2725   -3.2270   -6.8985 Br        1 <0>        -0.0161
     21 H1          0.8240    2.1620    0.1226 H         1 <0>         0.0606
     22 H2         -0.6513    2.1458   -0.8730 H         1 <0>         0.0521
     23 H3         -0.7707    2.3458    0.8917 H         1 <0>         0.0594
     24 H4          0.2317   -0.1491   -0.5533 H         1 <0>         0.0787
     25 H5         -0.2630    0.4228    2.4039 H         1 <0>         0.0595
     26 H6          0.2180   -1.1471    1.7166 H         1 <0>         0.0599
     27 H7          1.3317    0.2390    1.6349 H         1 <0>         0.0621
     28 H8         -1.8600   -1.1559    0.4074 H         1 <0>         0.0721
     29 H9         -2.3514    0.4668    0.9491 H         1 <0>         0.0719
     30 H10        -1.7649    0.5895   -1.8109 H         1 <0>         0.3975
     31 H11        -5.0399   -0.0608   -2.8335 H         1 <0>         0.4316
     32 H12        -2.8479    1.5678   -3.4415 H         1 <0>         0.4267
     33 H13        -4.7135   -2.3022   -5.7504 H         1 <0>         0.1650
     34 H14        -8.1934   -0.4656   -7.3997 H         1 <0>         0.1554
     35 H15        -7.2064    1.7556   -7.0092 H         1 <0>         0.1564
@<TRIPOS>BOND
     1    1    2 1
     2    1   21 1
     3    1   22 1
     4    1   23 1
     5    2    3 1
     6    2    4 1
     7    2   24 1
     8    3   25 1
     9    3   26 1
    10    3   27 1
    11    4    5 1
    12    4   28 1
    13    4   29 1
    14    5    6 am
    15    5   30 1
    16    6    7 2
    17    6    8 am
    18    8    9 1
    19    8   31 1
    20    9   10 1
    21    9   32 1
    22   10   11 2
    23   10   12 2
    24   10   13 1
    25   13   18 ar
    26   13   14 ar
    27   14   15 ar
    28   14   33 1
    29   15   16 ar
    30   15   20 1
    31   16   17 ar
    32   16   34 1
    33   17   18 ar
    34   17   35 1
    35   18   19 1
@<TRIPOS>MOLECULE
ZINC21092545
   38    40     0     0     0
SMALL
USER_CHARGES

@<TRIPOS>ATOM
      1 C1         -0.0126    1.3861    0.0465 C.ar      1 <0>        -0.0433
      2 C2          1.1743    2.0886    0.0428 C.ar      1 <0>        -0.1549
      3 C3          2.3832    1.4114    0.0213 C.ar      1 <0>         0.1188
      4 C4          2.4068    0.0259    0.0035 C.ar      1 <0>        -0.1560
      5 C5          1.2258   -0.6865    0.0066 C.ar      1 <0>        -0.0576
      6 C6          0.0054   -0.0095    0.0286 C.ar      1 <0>        -0.0353
      7 C7         -1.2636   -0.7678    0.0330 C.2       1 <0>         0.2645
      8 N1         -2.4541   -0.2949    0.3199 N.2       1 <0>        -0.2624
      9 N2         -3.3319   -1.2287    0.2244 N.2       1 <0>        -0.2763
     10 C8         -2.7555   -2.3555   -0.1293 C.2       1 <0>         0.1096
     11 N3         -1.4206   -2.1009   -0.2685 N.pl3     1 <0>        -0.2996
     12 N4         -0.4449   -2.9860   -0.6298 N.3       1 <0>        -0.5814
     13 S1         -3.5562   -3.9043   -0.3832 S.3       1 <0>         0.0756
     14 C9         -5.3040   -3.5554   -0.0455 C.3       1 <0>        -0.1415
     15 C10        -6.1121   -4.8141   -0.2290 C.2       1 <0>         0.5383
     16 O1         -5.5630   -5.8451   -0.5554 O.2       1 <0>        -0.4997
     17 N5         -7.4450   -4.7941   -0.0303 N.am      1 <0>        -0.6648
     18 C11        -8.2089   -5.9367   -0.2938 C.ar      1 <0>         0.1591
     19 C12        -9.4935   -5.8117   -0.8064 C.ar      1 <0>        -0.1362
     20 C13       -10.2449   -6.9410   -1.0660 C.ar      1 <0>        -0.0655
     21 C14        -9.7193   -8.1958   -0.8154 C.ar      1 <0>        -0.1121
     22 C15        -8.4400   -8.3234   -0.3048 C.ar      1 <0>        -0.0656
     23 C16        -7.6818   -7.1978   -0.0486 C.ar      1 <0>        -0.1154
     24 I1        -10.8631   -9.9062   -1.2093 I         1 <0>        -0.0387
     25 F1          3.5429    2.1044    0.0173 F         1 <0>        -0.1336
     26 H1         -0.9541    1.9148    0.0678 H         1 <0>         0.1472
     27 H2          1.1615    3.1685    0.0563 H         1 <0>         0.1455
     28 H3          3.3516   -0.4970   -0.0132 H         1 <0>         0.1433
     29 H4          1.2453   -1.7662   -0.0081 H         1 <0>         0.1456
     30 H5         -0.0515   -3.4410    0.1803 H         1 <0>         0.3693
     31 H6         -0.7972   -3.6632   -1.2895 H         1 <0>         0.3808
     32 H7         -5.4122   -3.2003    0.9793 H         1 <0>         0.1343
     33 H8         -5.6615   -2.7904   -0.7348 H         1 <0>         0.1347
     34 H9         -7.8748   -3.9878    0.2954 H         1 <0>         0.4187
     35 H10        -9.9046   -4.8322   -1.0016 H         1 <0>         0.1368
     36 H11       -11.2440   -6.8444   -1.4647 H         1 <0>         0.1356
     37 H12        -8.0323   -9.3043   -0.1098 H         1 <0>         0.1345
     38 H13        -6.6814   -7.2982    0.3458 H         1 <0>         0.1478
@<TRIPOS>BOND
     1    1    6 ar
     2    1    2 ar
     3    1   26 1
     4    2    3 ar
     5    2   27 1
     6    3    4 ar
     7    3   25 1
     8    4    5 ar
     9    4   28 1
    10    5    6 ar
    11    5   29 1
    12    6    7 1
    13    7   11 1
    14    7    8 2
    15    8    9 1
    16    9   10 2
    17   10   11 1
    18   10   13 1
    19   11   12 1
    20   12   30 1
    21   12   31 1
    22   13   14 1
    23   14   15 1
    24   14   32 1
    25   14   33 1
    26   15   16 2
    27   15   17 am
    28   17   18 1
    29   17   34 1
    30   18   23 ar
    31   18   19 ar
    32   19   20 ar
    33   19   35 1
    34   20   21 ar
    35   20   36 1
    36   21   22 ar
    37   21   24 1
    38   22   23 ar
    39   22   37 1
    40   23   38 1
@<TRIPOS>MOLECULE
ZINC02085596
   67    71     0     0     0
SMALL
USER_CHARGES
N-(3-carbamoyl-6-tert-butyl-4,5,6,7-tetrahydrobenzothiophen-2-yl)-2-(p-tolyl)quinoline-4-carboxamide
@<TRIPOS>ATOM
      1 C1         -7.1840    4.5493    0.0250 C.3       1 <0>        -0.1203
      2 C2         -5.9160    3.7350    0.0237 C.ar      1 <0>        -0.0668
      3 C3         -4.6881    4.3721    0.0291 C.ar      1 <0>        -0.1258
      4 C4         -3.5236    3.6316    0.0275 C.ar      1 <0>        -0.0676
      5 C5         -3.5863    2.2390    0.0204 C.ar      1 <0>        -0.0673
      6 C6         -4.8265    1.6026    0.0092 C.ar      1 <0>        -0.0938
      7 C7         -5.9844    2.3534    0.0167 C.ar      1 <0>        -0.1229
      8 C8         -2.3386    1.4378    0.0187 C.ar      1 <0>         0.2025
      9 C9         -2.4329    0.0379    0.0115 C.ar      1 <0>        -0.1167
     10 C10        -1.2723   -0.7231    0.0103 C.ar      1 <0>        -0.0748
     11 C11         0.0021   -0.0041    0.0167 C.ar      1 <0>        -0.0622
     12 C12         1.2252   -0.6836    0.0165 C.ar      1 <0>        -0.1030
     13 C13         2.3896    0.0256    0.0231 C.ar      1 <0>        -0.1058
     14 C14         2.3770    1.4187    0.0296 C.ar      1 <0>        -0.0958
     15 C15         1.2053    2.1108    0.0300 C.ar      1 <0>        -0.0912
     16 C16        -0.0171    1.4133    0.0238 C.ar      1 <0>         0.1320
     17 N1         -1.1812    2.0645    0.0299 N.ar      1 <0>        -0.4442
     18 C17        -1.3216   -2.2007    0.0024 C.2       1 <0>         0.5636
     19 O1         -0.2947   -2.8425   -0.1030 O.2       1 <0>        -0.4819
     20 N2         -2.5051   -2.8360    0.1120 N.am      1 <0>        -0.6122
     21 C18        -2.5513   -4.2203    0.1046 C.2       1 <0>         0.0658
     22 C19        -3.6620   -5.0469    0.2055 C.2       1 <0>        -0.2206
     23 C20        -3.4365   -6.4817    0.1713 C.2       1 <0>        -0.0666
     24 C21        -2.1455   -6.8582    0.0428 C.2       1 <0>        -0.2013
     25 S1         -1.2376   -5.3406   -0.0405 S.3       1 <0>         0.2338
     26 C22        -1.6146   -8.2572   -0.0199 C.3       1 <0>        -0.0354
     27 C23        -2.7158   -9.2141    0.4596 C.3       1 <0>        -0.0686
     28 H1         -2.8436   -9.1134    1.5373 H         1 <0>         0.0765
     29 C24        -4.0242   -8.8561   -0.2511 C.3       1 <0>        -0.1179
     30 C25        -4.5498   -7.5173    0.2700 C.3       1 <0>        -0.0603
     31 C26        -2.3262  -10.6546    0.1218 C.3       1 <0>        -0.0626
     32 C27        -1.0099  -11.0038    0.8191 C.3       1 <0>        -0.1457
     33 C28        -3.4249  -11.6057    0.6006 C.3       1 <0>        -0.1449
     34 C29        -2.1543  -10.7949   -1.3920 C.3       1 <0>        -0.1490
     35 C30        -5.0125   -4.4925    0.3411 C.2       1 <0>         0.5828
     36 O2         -5.6747   -4.2533   -0.6517 O.2       1 <0>        -0.5314
     37 N3         -5.5208   -4.2478    1.5651 N.am      1 <0>        -0.8476
     38 H2         -7.4877    4.7504   -1.0023 H         1 <0>         0.0747
     39 H3         -7.9717    3.9944    0.5347 H         1 <0>         0.0690
     40 H4         -7.0099    5.4921    0.5436 H         1 <0>         0.0694
     41 H5         -4.6407    5.4510    0.0350 H         1 <0>         0.1281
     42 H6         -2.5654    4.1300    0.0314 H         1 <0>         0.1371
     43 H7         -4.8810    0.5240   -0.0011 H         1 <0>         0.1237
     44 H8         -6.9458    1.8614    0.0122 H         1 <0>         0.1284
     45 H9         -3.3998   -0.4431    0.0067 H         1 <0>         0.1418
     46 H10         1.2468   -1.7634    0.0116 H         1 <0>         0.1628
     47 H11         3.3336   -0.4992    0.0230 H         1 <0>         0.1334
     48 H12         3.3125    1.9583    0.0340 H         1 <0>         0.1350
     49 H13         1.2133    3.1908    0.0350 H         1 <0>         0.1409
     50 H14        -3.3246   -2.3239    0.1962 H         1 <0>         0.4184
     51 H15        -1.3387   -8.4996   -1.0462 H         1 <0>         0.0884
     52 H16        -0.7415   -8.3480    0.6262 H         1 <0>         0.0824
     53 H17        -3.8452   -8.7822   -1.3238 H         1 <0>         0.0698
     54 H18        -4.7643   -9.6333   -0.0603 H         1 <0>         0.0754
     55 H19        -4.8574   -7.6252    1.3101 H         1 <0>         0.0764
     56 H20        -5.3997   -7.1988   -0.3335 H         1 <0>         0.0754
     57 H21        -1.1323  -10.9039    1.8976 H         1 <0>         0.0551
     58 H22        -0.7323  -12.0301    0.5785 H         1 <0>         0.0555
     59 H23        -0.2271  -10.3263    0.4780 H         1 <0>         0.0575
     60 H24        -4.3627  -11.3570    0.1038 H         1 <0>         0.0590
     61 H25        -3.1474  -12.6320    0.3599 H         1 <0>         0.0555
     62 H26        -3.5474  -11.5058    1.6790 H         1 <0>         0.0548
     63 H27        -1.3715  -10.1173   -1.7331 H         1 <0>         0.0585
     64 H28        -1.8767  -11.8211   -1.6327 H         1 <0>         0.0549
     65 H29        -3.0921  -10.5461   -1.8888 H         1 <0>         0.0585
     66 H30        -4.9931   -4.4384    2.3564 H         1 <0>         0.4039
     67 H31        -6.4143   -3.8810    1.6548 H         1 <0>         0.4038
@<TRIPOS>BOND
     1    1    2 1
     2    1   38 1
     3    1   39 1
     4    1   40 1
     5    2    7 ar
     6    2    3 ar
     7    3    4 ar
     8    3   41 1
     9    4    5 ar
    10    4   42 1
    11    5    6 ar
    12    5    8 1
    13    6    7 ar
    14    6   43 1
    15    7   44 1
    16    8   17 ar
    17    8    9 ar
    18    9   10 ar
    19    9   45 1
    20   10   11 ar
    21   10   18 1
    22   11   16 ar
    23   11   12 ar
    24   12   13 ar
    25   12   46 1
    26   13   14 ar
    27   13   47 1
    28   14   15 ar
    29   14   48 1
    30   15   16 ar
    31   15   49 1
    32   16   17 ar
    33   18   19 2
    34   18   20 am
    35   20   21 1
    36   20   50 1
    37   21   25 1
    38   21   22 2
    39   22   23 1
    40   22   35 1
    41   23   30 1
    42   23   24 2
    43   24   25 1
    44   24   26 1
    45   26   27 1
    46   26   51 1
    47   26   52 1
    48   27   28 1
    49   27   29 1
    50   27   31 1
    51   29   30 1
    52   29   53 1
    53   29   54 1
    54   30   55 1
    55   30   56 1
    56   31   32 1
    57   31   33 1
    58   31   34 1
    59   32   57 1
    60   32   58 1
    61   32   59 1
    62   33   60 1
    63   33   61 1
    64   33   62 1
    65   34   63 1
    66   34   64 1
    67   34   65 1
    68   35   36 2
    69   35   37 am
    70   37   66 1
    71   37   67 1
@<TRIPOS>MOLECULE
ZINC16572283
   66    70     0     0     0
SMALL
USER_CHARGES
(2R,3S)-2-(1-adamantylcarbamoylamino)-N-[5-(4-chlorophenyl)-1,3,4-thiadiazol-2-yl]-3-methyl-pentanamide
@<TRIPOS>ATOM
      1 C1         -4.8666    0.1241    3.0968 C.3       1 <0>        -0.1513
      2 C2         -4.3698    0.2577    1.6559 C.3       1 <0>        -0.1219
      3 C3         -4.2393    1.7392    1.2967 C.3       1 <0>        -0.0975
      4 H1         -3.5976    2.2346    2.0254 H         1 <0>         0.0996
      5 C4         -5.6234    2.3910    1.3097 C.3       1 <0>        -0.1603
      6 C5         -3.6253    1.8736   -0.0982 C.3       1 <0>         0.1648
      7 H2         -3.5948    2.9256   -0.3819 H         1 <0>         0.1170
      8 C6         -4.4625    1.1096   -1.0913 C.2       1 <0>         0.5130
      9 O1         -4.1731   -0.0332   -1.3763 O.2       1 <0>        -0.4554
     10 N1         -5.5329    1.6962   -1.6628 N.am      1 <0>        -0.6070
     11 C7         -6.3611    0.9624   -2.5033 C.2       1 <0>         0.2882
     12 N2         -6.2833   -0.3073   -2.8808 N.2       1 <0>        -0.2729
     13 N3         -7.1324   -0.8254   -3.6564 N.2       1 <0>        -0.2420
     14 C8         -8.1476   -0.1278   -4.1511 C.2       1 <0>         0.0949
     15 S1         -7.8329    1.4629   -3.3917 S.3       1 <0>         0.0087
     16 C9         -9.2298   -0.5452   -5.0677 C.ar      1 <0>        -0.0084
     17 C10       -10.2098    0.3691   -5.4571 C.ar      1 <0>        -0.0786
     18 C11       -11.2142   -0.0249   -6.3164 C.ar      1 <0>        -0.1069
     19 C12       -11.2573   -1.3274   -6.7847 C.ar      1 <0>        -0.0166
     20 C13       -10.2907   -2.2404   -6.3977 C.ar      1 <0>        -0.1076
     21 C14        -9.2786   -1.8567   -5.5426 C.ar      1 <0>        -0.0564
     22 Cl1       -12.5283   -1.8177   -7.8607 Cl        1 <0>        -0.0570
     23 N4         -2.2644    1.3312   -0.0871 N.am      1 <0>        -0.7336
     24 C15        -1.2329    2.1071    0.3005 C.2       1 <0>         0.7132
     25 O2         -1.4316    3.2573    0.6410 O.2       1 <0>        -0.5802
     26 N5          0.0191    1.6080    0.3107 N.am      1 <0>        -0.7374
     27 C16         1.1412    2.4533    0.7263 C.3       1 <0>         0.2030
     28 C17         1.2307    3.6714   -0.1951 C.3       1 <0>        -0.1224
     29 C18         2.4026    4.5541    0.2389 C.3       1 <0>        -0.0825
     30 C19         3.7034    3.7532    0.1534 C.3       1 <0>        -0.1118
     31 C20         3.6139    2.5351    1.0748 C.3       1 <0>        -0.0799
     32 C21         2.4420    1.6524    0.6408 C.3       1 <0>        -0.1155
     33 C22         3.3954    3.0006    2.5158 C.3       1 <0>        -0.1117
     34 C23         2.0946    3.8015    2.6013 C.3       1 <0>        -0.0826
     35 C24         2.1841    5.0196    1.6799 C.3       1 <0>        -0.1088
     36 C25         0.9227    2.9188    2.1673 C.3       1 <0>        -0.1214
     37 H3         -4.1556    0.6004    3.7719 H         1 <0>         0.0551
     38 H4         -5.8386    0.6082    3.1923 H         1 <0>         0.0563
     39 H5         -4.9596   -0.9313    3.3527 H         1 <0>         0.0555
     40 H6         -5.0808   -0.2185    0.9808 H         1 <0>         0.0622
     41 H7         -3.3978   -0.2263    1.5604 H         1 <0>         0.0670
     42 H8         -6.0156    2.3909    2.3267 H         1 <0>         0.0736
     43 H9         -5.5452    3.4172    0.9506 H         1 <0>         0.0638
     44 H10        -6.2956    1.8293    0.6609 H         1 <0>         0.0539
     45 H11        -5.7252    2.6306   -1.4874 H         1 <0>         0.4319
     46 H12       -10.1798    1.3840   -5.0889 H         1 <0>         0.1367
     47 H13       -11.9708    0.6828   -6.6216 H         1 <0>         0.1445
     48 H14       -10.3296   -3.2549   -6.7659 H         1 <0>         0.1455
     49 H15        -8.5258   -2.5699   -5.2410 H         1 <0>         0.1486
     50 H16        -2.1059    0.4136   -0.3588 H         1 <0>         0.4068
     51 H17         0.1776    0.6905    0.0391 H         1 <0>         0.3963
     52 H18         1.3864    3.3398   -1.2217 H         1 <0>         0.0576
     53 H19         0.3040    4.2420   -0.1342 H         1 <0>         0.0877
     54 H20         2.4664    5.4219   -0.4175 H         1 <0>         0.0716
     55 H21         4.5383    4.3821    0.4626 H         1 <0>         0.0649
     56 H22         3.8591    3.4216   -0.8732 H         1 <0>         0.0621
     57 H23         4.5406    1.9645    1.0139 H         1 <0>         0.0751
     58 H24         2.3782    0.7845    1.2972 H         1 <0>         0.0686
     59 H25         2.5977    1.3207   -0.3858 H         1 <0>         0.0683
     60 H26         3.3316    2.1328    3.1723 H         1 <0>         0.0623
     61 H27         4.2302    3.6295    2.8250 H         1 <0>         0.0648
     62 H28         1.9389    4.1331    3.6279 H         1 <0>         0.0718
     63 H29         3.0190    5.6485    1.9891 H         1 <0>         0.0621
     64 H30         1.2574    5.5902    1.7408 H         1 <0>         0.0649
     65 H31        -0.0040    3.4894    2.2282 H         1 <0>         0.0877
     66 H32         0.8589    2.0510    2.8238 H         1 <0>         0.0581
@<TRIPOS>BOND
     1    1    2 1
     2    1   37 1
     3    1   38 1
     4    1   39 1
     5    2    3 1
     6    2   40 1
     7    2   41 1
     8    3    4 1
     9    3    5 1
    10    3    6 1
    11    5   42 1
    12    5   43 1
    13    5   44 1
    14    6    7 1
    15    6    8 1
    16    6   23 1
    17    8    9 2
    18    8   10 am
    19   10   11 1
    20   10   45 1
    21   11   15 1
    22   11   12 2
    23   12   13 1
    24   13   14 2
    25   14   15 1
    26   14   16 1
    27   16   21 ar
    28   16   17 ar
    29   17   18 ar
    30   17   46 1
    31   18   19 ar
    32   18   47 1
    33   19   20 ar
    34   19   22 1
    35   20   21 ar
    36   20   48 1
    37   21   49 1
    38   23   24 am
    39   23   50 1
    40   24   25 2
    41   24   26 am
    42   26   27 1
    43   26   51 1
    44   27   32 1
    45   27   36 1
    46   27   28 1
    47   28   29 1
    48   28   52 1
    49   28   53 1
    50   29   35 1
    51   29   30 1
    52   29   54 1
    53   30   31 1
    54   30   55 1
    55   30   56 1
    56   31   32 1
    57   31   33 1
    58   31   57 1
    59   32   58 1
    60   32   59 1
    61   33   34 1
    62   33   60 1
    63   33   61 1
    64   34   35 1
    65   34   36 1
    66   34   62 1
    67   35   63 1
    68   35   64 1
    69   36   65 1
    70   36   66 1
@<TRIPOS>MOLECULE
ZINC33058241
   52    55     0     0     0
SMALL
USER_CHARGES
[3-amino-4-(benzenesulfonyl)-5-(2-methoxyanilino)-2-thienyl]-(4-chlorophenyl)methanone
@<TRIPOS>ATOM
      1 C1          1.8690    7.5955   -2.3384 C.3       1 <0>         0.0230
      2 O1          1.6318    6.3091   -1.7630 O.3       1 <0>        -0.3143
      3 C2          2.7099    5.6480   -1.2632 C.ar      1 <0>         0.1159
      4 C3          3.9673    6.2263   -1.3213 C.ar      1 <0>        -0.1810
      5 C4          5.0633    5.5508   -0.8170 C.ar      1 <0>        -0.0858
      6 C5          4.9082    4.2993   -0.2498 C.ar      1 <0>        -0.1199
      7 C6          3.6567    3.7170   -0.1840 C.ar      1 <0>        -0.1194
      8 C7          2.5519    4.3889   -0.6875 C.ar      1 <0>         0.1045
      9 N1          1.2834    3.8012   -0.6225 N.pl3     1 <0>        -0.6011
     10 C8          1.1574    2.4241   -0.6449 C.2       1 <0>         0.2874
     11 C9          0.0295    1.6551   -0.4326 C.2       1 <0>        -0.8555
     12 C10         0.1353    0.2890   -0.5044 C.2       1 <0>         0.4030
     13 C11         1.3903   -0.2634   -0.7914 C.2       1 <0>        -0.4314
     14 S1          2.4106    1.1921   -0.9561 S.3       1 <0>         0.1474
     15 C12         1.7528   -1.6158   -0.9173 C.2       1 <0>         0.4887
     16 O2          0.9444   -2.4909   -0.6555 O.2       1 <0>        -0.4966
     17 C13         3.1152   -1.9778   -1.3675 C.ar      1 <0>        -0.1393
     18 C14         3.8750   -1.0670   -2.1029 C.ar      1 <0>        -0.0747
     19 C15         5.1463   -1.4077   -2.5149 C.ar      1 <0>        -0.1141
     20 C16         5.6647   -2.6555   -2.2104 C.ar      1 <0>        -0.0149
     21 C17         4.9130   -3.5656   -1.4859 C.ar      1 <0>        -0.1172
     22 C18         3.6429   -3.2335   -1.0633 C.ar      1 <0>        -0.0540
     23 Cl1         7.2629   -3.0801   -2.7386 Cl        1 <0>        -0.0625
     24 N2         -0.9730   -0.5250   -0.2983 N.pl3     1 <0>        -0.8524
     25 S2         -1.5206    2.4163   -0.0827 S.o2      1 <0>         2.6075
     26 O3         -1.4095    3.7719   -0.4941 O.2       1 <0>        -0.9469
     27 O4         -2.5237    1.5463   -0.5890 O.2       1 <0>        -0.9354
     28 C19        -1.7080    2.4354    1.6692 C.ar      1 <0>        -0.6613
     29 C20        -2.3221    1.3757    2.3102 C.ar      1 <0>        -0.0213
     30 C21        -2.4647    1.3885    3.6851 C.ar      1 <0>        -0.1335
     31 C22        -2.0027    2.4657    4.4180 C.ar      1 <0>        -0.0593
     32 C23        -1.3933    3.5277    3.7764 C.ar      1 <0>        -0.1352
     33 C24        -1.2459    3.5126    2.4020 C.ar      1 <0>        -0.0214
     34 H1          0.9193    8.0157   -2.7011 H         1 <0>         0.1073
     35 H2          2.5713    7.4972   -3.1793 H         1 <0>         0.0606
     36 H3          2.2989    8.2638   -1.5778 H         1 <0>         0.0603
     37 H4          4.0921    7.2035   -1.7639 H         1 <0>         0.1391
     38 H5          6.0434    6.0018   -0.8666 H         1 <0>         0.1337
     39 H6          5.7674    3.7754    0.1424 H         1 <0>         0.1365
     40 H7          3.5385    2.7393    0.2595 H         1 <0>         0.1433
     41 H8          0.3867    4.4346   -0.5536 H         1 <0>         0.4728
     42 H9          3.4701   -0.0954   -2.3446 H         1 <0>         0.1394
     43 H10         5.7371   -0.7019   -3.0799 H         1 <0>         0.1404
     44 H11         5.3224   -4.5370   -1.2510 H         1 <0>         0.1404
     45 H12         3.0579   -3.9437   -0.4977 H         1 <0>         0.1434
     46 H13        -0.8712   -1.6186   -0.3594 H         1 <0>         0.4453
     47 H14        -1.9516   -0.0754   -0.0741 H         1 <0>         0.4252
     48 H15        -2.6871    0.5362    1.7372 H         1 <0>         0.1370
     49 H16        -2.9412    0.5589    4.1863 H         1 <0>         0.1376
     50 H17        -2.1181    2.4777    5.4917 H         1 <0>         0.1351
     51 H18        -1.0326    4.3695    4.3489 H         1 <0>         0.1364
     52 H19        -0.7701    4.3425    1.9007 H         1 <0>         0.1375
@<TRIPOS>BOND
     1    1    2 1
     2    1   34 1
     3    1   35 1
     4    1   36 1
     5    2    3 1
     6    3    8 ar
     7    3    4 ar
     8    4    5 ar
     9    4   37 1
    10    5    6 ar
    11    5   38 1
    12    6    7 ar
    13    6   39 1
    14    7    8 ar
    15    7   40 1
    16    8    9 1
    17    9   10 1
    18    9   41 1
    19   10   14 1
    20   10   11 2
    21   11   12 1
    22   11   25 1
    23   12   13 2
    24   12   24 1
    25   13   14 1
    26   13   15 1
    27   15   16 2
    28   15   17 1
    29   17   22 ar
    30   17   18 ar
    31   18   19 ar
    32   18   42 1
    33   19   20 ar
    34   19   43 1
    35   20   21 ar
    36   20   23 1
    37   21   22 ar
    38   21   44 1
    39   22   45 1
    40   24   46 1
    41   24   47 1
    42   25   26 2
    43   25   27 2
    44   25   28 1
    45   28   33 ar
    46   28   29 ar
    47   29   30 ar
    48   29   48 1
    49   30   31 ar
    50   30   49 1
    51   31   32 ar
    52   31   50 1
    53   32   33 ar
    54   32   51 1
    55   33   52 1
@<TRIPOS>MOLECULE
ZINC35729066
   52    54     0     0     0
SMALL
USER_CHARGES

@<TRIPOS>ATOM
      1 C1          2.7687   -0.6530    2.6847 C.3       1 <0>        -0.1817
      2 C2          2.0639    0.1116    1.5623 C.3       1 <0>        -0.1209
      3 C3          0.7268   -0.5622    1.2477 C.3       1 <0>        -0.1028
      4 H1          0.8877   -1.6267    1.0769 H         1 <0>         0.0852
      5 C4          0.1201    0.0696   -0.0068 C.3       1 <0>        -0.1403
      6 C5         -0.2293   -0.3737    2.4271 C.3       1 <0>         0.1570
      7 H2         -1.2170   -0.7478    2.1575 H         1 <0>         0.1337
      8 C6          0.2880   -1.1355    3.6200 C.2       1 <0>         0.5187
      9 O1          0.5432   -0.5486    4.6502 O.2       1 <0>        -0.4584
     10 N1          0.4672   -2.4690    3.5419 N.am      1 <0>        -0.6083
     11 C7          0.8439   -3.1867    4.6707 C.2       1 <0>         0.2871
     12 N2          1.0723   -2.7694    5.9093 N.2       1 <0>        -0.2715
     13 N3          1.4112   -3.5636    6.8286 N.2       1 <0>        -0.2446
     14 C8          1.5597   -4.8647    6.6116 C.2       1 <0>         0.0998
     15 S1          1.1516   -4.9393    4.8698 S.3       1 <0>         0.0078
     16 C9          1.9460   -5.9451    7.5437 C.ar      1 <0>        -0.0255
     17 C10         2.0467   -7.2605    7.0881 C.ar      1 <0>        -0.0609
     18 C11         2.4075   -8.2647    7.9619 C.ar      1 <0>        -0.1505
     19 C12         2.6698   -7.9695    9.2903 C.ar      1 <0>         0.1233
     20 C13         2.5713   -6.6652    9.7480 C.ar      1 <0>        -0.1513
     21 C14         2.2169   -5.6525    8.8813 C.ar      1 <0>        -0.0388
     22 F1          3.0224   -8.9569   10.1423 F         1 <0>        -0.1311
     23 N4         -0.3204    1.0503    2.7591 N.am      1 <0>        -0.7201
     24 C15        -1.2819    1.8123    2.2010 C.2       1 <0>         0.7122
     25 O2         -2.1294    1.3009    1.4949 O.2       1 <0>        -0.5623
     26 N5         -1.3039    3.1410    2.4257 N.am      1 <0>        -0.6821
     27 C16        -2.3634    3.9153    1.9396 C.ar      1 <0>         0.1720
     28 C17        -2.1377    5.2219    1.5259 C.ar      1 <0>        -0.1320
     29 C18        -3.1849    5.9838    1.0461 C.ar      1 <0>        -0.0916
     30 C19        -4.4576    5.4474    0.9771 C.ar      1 <0>        -0.1080
     31 C20        -4.6862    4.1465    1.3887 C.ar      1 <0>        -0.0705
     32 C21        -3.6409    3.3772    1.8645 C.ar      1 <0>        -0.0931
     33 Br1        -6.4286    3.4178    1.2937 Br        1 <0>        -0.0442
     34 H3          2.7327   -1.7219    2.4744 H         1 <0>         0.0518
     35 H4          3.8077   -0.3298    2.7477 H         1 <0>         0.0611
     36 H5          2.2676   -0.4520    3.6316 H         1 <0>         0.0706
     37 H6          1.8872    1.1397    1.8784 H         1 <0>         0.0681
     38 H7          2.6912    0.1082    0.6709 H         1 <0>         0.0723
     39 H8          0.7529   -0.1503   -0.8667 H         1 <0>         0.0604
     40 H9         -0.8760   -0.3401   -0.1745 H         1 <0>         0.0676
     41 H10         0.0512    1.1491    0.1271 H         1 <0>         0.0562
     42 H11         0.3332   -2.9278    2.6978 H         1 <0>         0.4315
     43 H12         1.8421   -7.4917    6.0531 H         1 <0>         0.1374
     44 H13         2.4853   -9.2829    7.6105 H         1 <0>         0.1469
     45 H14         2.7768   -6.4405   10.7842 H         1 <0>         0.1478
     46 H15         2.1448   -4.6357    9.2380 H         1 <0>         0.1494
     47 H16         0.3113    1.4448    3.3806 H         1 <0>         0.4095
     48 H17        -0.5854    3.5605    2.9244 H         1 <0>         0.4115
     49 H18        -1.1442    5.6418    1.5797 H         1 <0>         0.1328
     50 H19        -3.0097    6.9999    0.7248 H         1 <0>         0.1375
     51 H20        -5.2748    6.0453    0.6016 H         1 <0>         0.1347
     52 H21        -3.8187    2.3602    2.1816 H         1 <0>         0.1469
@<TRIPOS>BOND
     1    1    2 1
     2    1   34 1
     3    1   35 1
     4    1   36 1
     5    2    3 1
     6    2   37 1
     7    2   38 1
     8    3    4 1
     9    3    5 1
    10    3    6 1
    11    5   39 1
    12    5   40 1
    13    5   41 1
    14    6    7 1
    15    6    8 1
    16    6   23 1
    17    8    9 2
    18    8   10 am
    19   10   11 1
    20   10   42 1
    21   11   15 1
    22   11   12 2
    23   12   13 1
    24   13   14 2
    25   14   15 1
    26   14   16 1
    27   16   21 ar
    28   16   17 ar
    29   17   18 ar
    30   17   43 1
    31   18   19 ar
    32   18   44 1
    33   19   20 ar
    34   19   22 1
    35   20   21 ar
    36   20   45 1
    37   21   46 1
    38   23   24 am
    39   23   47 1
    40   24   25 2
    41   24   26 am
    42   26   27 1
    43   26   48 1
    44   27   32 ar
    45   27   28 ar
    46   28   29 ar
    47   28   49 1
    48   29   30 ar
    49   29   50 1
    50   30   31 ar
    51   30   51 1
    52   31   32 ar
    53   31   33 1
    54   32   52 1
@<TRIPOS>MOLECULE
ZINC59310292
   61    66     0     0     0
SMALL
USER_CHARGES

@<TRIPOS>ATOM
      1 C1         -0.0390    1.3952    0.0716 C.3       1 <0>        -0.1597
      2 C2         -0.0082   -0.1343    0.0460 C.3       1 <0>         0.1850
      3 H1          0.5225   -0.5018    0.9243 H         1 <0>         0.1007
      4 C3         -1.4185   -0.6653    0.0527 C.ar      1 <0>        -0.0945
      5 C4         -2.1495   -0.7001   -1.1201 C.ar      1 <0>        -0.1158
      6 C5         -3.4432   -1.1872   -1.1139 C.ar      1 <0>        -0.1155
      7 C6         -4.0057   -1.6399    0.0649 C.ar      1 <0>        -0.1177
      8 C7         -3.2744   -1.6059    1.2374 C.ar      1 <0>        -0.1144
      9 C8         -1.9792   -1.1228    1.2305 C.ar      1 <0>        -0.1063
     10 N1          0.6789   -0.5887   -1.1654 N.am      1 <0>        -0.7192
     11 C9          2.0228   -0.6902   -1.1801 C.2       1 <0>         0.5386
     12 O1          2.6632   -0.4053   -0.1903 O.2       1 <0>        -0.5167
     13 C10         2.7296   -1.1576   -2.4262 C.3       1 <0>        -0.1638
     14 S1          4.5192   -1.1875   -2.1311 S.3       1 <0>         0.1142
     15 C11         5.1940   -1.7471   -3.6596 C.2       1 <0>         0.2175
     16 N2          6.4940   -1.9313   -3.9141 N.2       1 <0>        -0.5221
     17 C12         6.6474   -2.3548   -5.1510 C.2       1 <0>         0.5611
     18 N3          5.4242   -2.4487   -5.7142 N.pl3     1 <0>        -0.5035
     19 N4          4.5023   -2.0559   -4.7305 N.2       1 <0>        -0.3232
     20 N5          7.8507   -2.6509   -5.7660 N.pl3     1 <0>        -0.5562
     21 N6          9.0522   -2.5074   -5.0599 N.2       1 <0>        -0.2021
     22 C13        10.1657   -2.7814   -5.6289 C.2       1 <0>         0.1211
     23 C14        11.4290   -2.6305   -4.8865 C.ar      1 <0>        -0.0560
     24 C15        12.6995   -3.0645   -5.4949 C.ar      1 <0>        -0.0920
     25 C16        13.8350   -2.9338   -4.8399 C.ar      1 <0>        -0.1030
     26 C17        13.8348   -2.3490   -3.4882 C.ar      1 <0>        -0.0353
     27 C18        15.0874   -2.1889   -2.7303 C.ar      1 <0>        -0.1081
     28 C19        15.0662   -1.6623   -1.5210 C.ar      1 <0>        -0.0945
     29 C20        13.7899   -1.2326   -0.9247 C.ar      1 <0>        -0.0506
     30 C21        13.7429   -0.6416    0.4234 C.ar      1 <0>        -0.1042
     31 C22        12.5870   -0.2659    0.9316 C.ar      1 <0>        -0.1136
     32 C23        11.3405   -0.4319    0.1625 C.ar      1 <0>        -0.0979
     33 C24        11.3794   -0.9593   -1.0417 C.ar      1 <0>        -0.0497
     34 C25        12.6766   -1.3771   -1.6034 C.ar      1 <0>        -0.0317
     35 C26        12.7002   -1.9649   -2.9532 C.ar      1 <0>        -0.0401
     36 C27        11.4263   -2.1034   -3.6816 C.ar      1 <0>         0.0114
     37 C28        10.1789   -1.6547   -3.0450 C.ar      1 <0>        -0.1373
     38 C29        10.1566   -1.1399   -1.8383 C.ar      1 <0>        -0.0913
     39 H2          0.9811    1.7793    0.0667 H         1 <0>         0.0680
     40 H3         -0.5698    1.7626   -0.8067 H         1 <0>         0.0598
     41 H4         -0.5503    1.7333    0.9729 H         1 <0>         0.0704
     42 H5         -1.7101   -0.3464   -2.0410 H         1 <0>         0.1201
     43 H6         -4.0146   -1.2137   -2.0300 H         1 <0>         0.1242
     44 H7         -5.0167   -2.0198    0.0698 H         1 <0>         0.1237
     45 H8         -3.7140   -1.9593    2.1584 H         1 <0>         0.1255
     46 H9         -1.4066   -1.0997    2.1458 H         1 <0>         0.1260
     47 H10         0.1667   -0.8165   -1.9570 H         1 <0>         0.4024
     48 H11         2.3871   -2.1597   -2.6840 H         1 <0>         0.1225
     49 H12         2.5081   -0.4755   -3.2471 H         1 <0>         0.1227
     50 H13         7.8626   -2.9578   -6.6861 H         1 <0>         0.3998
     51 H14        10.1789   -3.1231   -6.6534 H         1 <0>         0.1281
     52 H15        12.6994   -3.4937   -6.4859 H         1 <0>         0.1340
     53 H16        14.7619   -3.2544   -5.2920 H         1 <0>         0.1364
     54 H17        16.0247   -2.5035   -3.1650 H         1 <0>         0.1338
     55 H18        15.9862   -1.5463   -0.9672 H         1 <0>         0.1331
     56 H19        14.6519   -0.5171    0.9931 H         1 <0>         0.1302
     57 H20        12.5523    0.1672    1.9204 H         1 <0>         0.1298
     58 H21        10.3973   -0.1214    0.5871 H         1 <0>         0.1327
     59 H22         9.2492   -1.7630   -3.5838 H         1 <0>         0.1931
     60 H23         9.2101   -0.8316   -1.4194 H         1 <0>         0.1312
     61 H24         5.2218   -2.7341   -6.6188 H         1 <0>         0.4389
@<TRIPOS>BOND
     1    1    2 1
     2    1   39 1
     3    1   40 1
     4    1   41 1
     5    2    3 1
     6    2    4 1
     7    2   10 1
     8    4    9 ar
     9    4    5 ar
    10    5    6 ar
    11    5   42 1
    12    6    7 ar
    13    6   43 1
    14    7    8 ar
    15    7   44 1
    16    8    9 ar
    17    8   45 1
    18    9   46 1
    19   10   11 am
    20   10   47 1
    21   11   12 2
    22   11   13 1
    23   13   14 1
    24   13   48 1
    25   13   49 1
    26   14   15 1
    27   15   19 2
    28   15   16 1
    29   16   17 2
    30   17   18 1
    31   17   20 1
    32   18   19 1
    33   18   61 1
    34   20   21 1
    35   20   50 1
    36   21   22 2
    37   22   23 1
    38   22   51 1
    39   23   36 ar
    40   23   24 ar
    41   24   25 ar
    42   24   52 1
    43   25   26 ar
    44   25   53 1
    45   26   35 ar
    46   26   27 ar
    47   27   28 ar
    48   27   54 1
    49   28   29 ar
    50   28   55 1
    51   29   34 ar
    52   29   30 ar
    53   30   31 ar
    54   30   56 1
    55   31   32 ar
    56   31   57 1
    57   32   33 ar
    58   32   58 1
    59   33   38 ar
    60   33   34 ar
    61   34   35 ar
    62   35   36 ar
    63   36   37 ar
    64   37   38 ar
    65   37   59 1
    66   38   60 1
@<TRIPOS>MOLECULE
ZINC02332062
   47    50     0     0     0
SMALL
USER_CHARGES
2-[2-amino-5-(4-bromophenyl)-pyrimidin-4-yl]-5-[(4-fluorophenyl)methoxy]phenol
@<TRIPOS>ATOM
      1 C1          0.4521    1.4225   -1.2120 C.ar      1 <0>        -0.0637
      2 C2          1.5602    0.6227   -1.4174 C.ar      1 <0>        -0.1568
      3 C3          1.4047   -0.7408   -1.6012 C.ar      1 <0>         0.1118
      4 C4          0.1389   -1.3014   -1.5789 C.ar      1 <0>        -0.1567
      5 C5         -0.9678   -0.4996   -1.3733 C.ar      1 <0>        -0.0639
      6 C6         -0.8113    0.8617   -1.1899 C.ar      1 <0>        -0.1111
      7 C7         -2.0194    1.7359   -0.9720 C.3       1 <0>         0.1016
      8 O1         -2.2994    1.8213    0.4267 O.3       1 <0>        -0.3036
      9 C8         -3.3653    2.5771    0.7970 C.ar      1 <0>         0.1669
     10 C9         -4.1224    3.2281   -0.1703 C.ar      1 <0>        -0.2188
     11 C10        -5.2078    3.9924    0.1977 C.ar      1 <0>        -0.0233
     12 C11        -5.5435    4.1234    1.5460 C.ar      1 <0>        -0.1221
     13 C12        -4.7770    3.4715    2.5200 C.ar      1 <0>         0.1895
     14 C13        -3.6913    2.7014    2.1393 C.ar      1 <0>        -0.1855
     15 O2         -5.0978    3.5940    3.8336 O.3       1 <0>        -0.4782
     16 C14        -6.7051    4.9475    1.9447 C.ar      1 <0>         0.2907
     17 C15        -6.8507    6.2635    1.4614 C.ar      1 <0>        -0.2205
     18 C16        -7.9677    6.9941    1.8654 C.ar      1 <0>         0.2138
     19 N1         -8.8389    6.4359    2.6890 N.ar      1 <0>        -0.5710
     20 C17        -8.6694    5.1970    3.1292 C.ar      1 <0>         0.5714
     21 N2         -7.6287    4.4616    2.7707 N.ar      1 <0>        -0.5429
     22 N3         -9.6084    4.6563    3.9897 N.pl3     1 <0>        -0.8172
     23 C18        -5.8465    6.8532    0.5446 C.ar      1 <0>        -0.0056
     24 C19        -4.5057    6.9150    0.9221 C.ar      1 <0>        -0.0930
     25 C20        -3.5742    7.4607    0.0628 C.ar      1 <0>        -0.0848
     26 C21        -3.9704    7.9558   -1.1677 C.ar      1 <0>        -0.0902
     27 C22        -5.3010    7.9017   -1.5453 C.ar      1 <0>        -0.0856
     28 C23        -6.2400    7.3534   -0.6959 C.ar      1 <0>        -0.1064
     29 Br1        -2.6892    8.7093   -2.3368 Br        1 <0>        -0.0498
     30 F1          2.4873   -1.5237   -1.8017 F         1 <0>        -0.1359
     31 H1          0.5731    2.4861   -1.0687 H         1 <0>         0.1363
     32 H2          2.5471    1.0610   -1.4346 H         1 <0>         0.1401
     33 H3          0.0164   -2.3648   -1.7217 H         1 <0>         0.1401
     34 H4         -1.9552   -0.9366   -1.3555 H         1 <0>         0.1362
     35 H5         -1.8217    2.7333   -1.3646 H         1 <0>         0.0780
     36 H6         -2.8772    1.3055   -1.4886 H         1 <0>         0.0772
     37 H7         -3.8613    3.1309   -1.2137 H         1 <0>         0.1360
     38 H8         -5.7963    4.4935   -0.5567 H         1 <0>         0.1317
     39 H9         -3.0978    2.1976    2.8879 H         1 <0>         0.1424
     40 H10        -4.6666    4.3379    4.2761 H         1 <0>         0.3909
     41 H11        -8.1173    8.0041    1.5136 H         1 <0>         0.1710
     42 H12        -9.4985    3.7513    4.3209 H         1 <0>         0.4167
     43 H13       -10.3766    5.1824    4.2619 H         1 <0>         0.4160
     44 H14        -4.1962    6.5331    1.8837 H         1 <0>         0.1264
     45 H15        -2.5347    7.5053    0.3524 H         1 <0>         0.1334
     46 H16        -5.6048    8.2897   -2.5063 H         1 <0>         0.1352
     47 H17        -7.2780    7.3120   -0.9913 H         1 <0>         0.1333
@<TRIPOS>BOND
     1    1    6 ar
     2    1    2 ar
     3    1   31 1
     4    2    3 ar
     5    2   32 1
     6    3    4 ar
     7    3   30 1
     8    4    5 ar
     9    4   33 1
    10    5    6 ar
    11    5   34 1
    12    6    7 1
    13    7    8 1
    14    7   35 1
    15    7   36 1
    16    8    9 1
    17    9   14 ar
    18    9   10 ar
    19   10   11 ar
    20   10   37 1
    21   11   12 ar
    22   11   38 1
    23   12   13 ar
    24   12   16 1
    25   13   14 ar
    26   13   15 1
    27   14   39 1
    28   15   40 1
    29   16   21 ar
    30   16   17 ar
    31   17   18 ar
    32   17   23 1
    33   18   19 ar
    34   18   41 1
    35   19   20 ar
    36   20   21 ar
    37   20   22 1
    38   22   42 1
    39   22   43 1
    40   23   28 ar
    41   23   24 ar
    42   24   25 ar
    43   24   44 1
    44   25   26 ar
    45   25   45 1
    46   26   27 ar
    47   26   29 1
    48   27   28 ar
    49   27   46 1
    50   28   47 1
@<TRIPOS>MOLECULE
ZINC14466877
   58    62     0     0     0
SMALL
USER_CHARGES
(3aR,4R,9bS)-N-cyclohexyl-4-(3,5-dichloro-2-hydroxy-phenyl)-3a,4,5,9b-tetrahydro-3H-cyclopenta[c]quinoline-8-sulfonamide
@<TRIPOS>ATOM
      1 C1         -1.6110   -5.9841   -1.0032 C.ar      1 <0>         0.0206
      2 C2         -1.3374   -4.6358   -1.1232 C.ar      1 <0>        -0.2018
      3 C3         -0.3379   -4.0582   -0.3511 C.ar      1 <0>         0.2772
      4 C4          0.3900   -4.8256    0.5458 C.ar      1 <0>        -0.1624
      5 C5          0.1057   -6.1794    0.6572 C.ar      1 <0>         0.0279
      6 C6         -0.8867   -6.7534   -0.1115 C.ar      1 <0>        -0.7229
      7 S1         -1.2317   -8.4743    0.0439 S.o2      1 <0>         2.6944
      8 O1         -1.8349   -8.8795   -1.1772 O.2       1 <0>        -0.9611
      9 O2         -0.0500   -9.0815    0.5481 O.2       1 <0>        -0.9643
     10 N1         -2.3865   -8.6380    1.2194 N.pl3     1 <0>        -1.1147
     11 C7         -3.7272   -8.0854    1.0112 C.3       1 <0>         0.1501
     12 C8         -3.8077   -6.6923    1.6386 C.3       1 <0>        -0.1405
     13 C9         -5.2079   -6.1152    1.4211 C.3       1 <0>        -0.1177
     14 C10        -6.2442   -7.0304    2.0764 C.3       1 <0>        -0.1229
     15 C11        -6.1637   -8.4234    1.4490 C.3       1 <0>        -0.1193
     16 C12        -4.7635   -9.0006    1.6665 C.3       1 <0>        -0.1227
     17 C13         1.4714   -4.2463    1.4014 C.3       1 <0>        -0.0121
     18 H1          1.3517   -4.5952    2.4271 H         1 <0>         0.0966
     19 C14         2.8413   -4.6292    0.8940 C.2       1 <0>        -0.1541
     20 C15         3.6817   -3.6378    1.0639 C.2       1 <0>        -0.1692
     21 C16         2.9861   -2.4577    1.7146 C.3       1 <0>        -0.0993
     22 C17         1.4827   -2.7052    1.3951 C.3       1 <0>        -0.0960
     23 H2          0.8023   -2.2734    2.1291 H         1 <0>         0.0941
     24 C18         1.2265   -2.1868   -0.0229 C.3       1 <0>         0.2110
     25 H3          2.0142   -2.5378   -0.6896 H         1 <0>         0.0891
     26 N2         -0.0702   -2.6917   -0.4862 N.pl3     1 <0>        -0.7263
     27 C19         1.2073   -0.6800   -0.0136 C.ar      1 <0>        -0.0995
     28 C20         2.2679    0.0281   -0.5462 C.ar      1 <0>        -0.0769
     29 C21         2.2517    1.4113   -0.5374 C.ar      1 <0>        -0.0308
     30 C22         1.1736    2.0893    0.0042 C.ar      1 <0>        -0.0838
     31 C23         0.1107    1.3849    0.5374 C.ar      1 <0>        -0.0523
     32 C24         0.1258   -0.0034    0.5296 C.ar      1 <0>         0.1358
     33 O3         -0.9181   -0.6985    1.0544 O.3       1 <0>        -0.4746
     34 Cl1        -1.2414    2.2353    1.2173 Cl        1 <0>        -0.0364
     35 Cl2         3.5890    2.2980   -1.2001 Cl        1 <0>        -0.0451
     36 H4         -2.3873   -6.4355   -1.6032 H         1 <0>         0.1375
     37 H5         -1.9007   -4.0304   -1.8179 H         1 <0>         0.1302
     38 H6          0.6658   -6.7890    1.3508 H         1 <0>         0.1355
     39 H7         -2.1752   -9.0998    2.0459 H         1 <0>         0.4174
     40 H8         -3.9290   -8.0147   -0.0576 H         1 <0>         0.0917
     41 H9         -3.6059   -6.7630    2.7074 H         1 <0>         0.0696
     42 H10        -3.0695   -6.0403    1.1718 H         1 <0>         0.0708
     43 H11        -5.4098   -6.0445    0.3523 H         1 <0>         0.0646
     44 H12        -5.2653   -5.1227    1.8681 H         1 <0>         0.0652
     45 H13        -7.2417   -6.6192    1.9215 H         1 <0>         0.0638
     46 H14        -6.0424   -7.1010    3.1452 H         1 <0>         0.0627
     47 H15        -6.3655   -8.3528    0.3801 H         1 <0>         0.0664
     48 H16        -6.9020   -9.0754    1.9158 H         1 <0>         0.0677
     49 H17        -4.7061   -9.9930    1.2194 H         1 <0>         0.0719
     50 H18        -4.5616   -9.0713    2.7353 H         1 <0>         0.0697
     51 H19         3.0924   -5.5830    0.4541 H         1 <0>         0.1307
     52 H20         4.7236   -3.6584    0.7803 H         1 <0>         0.1303
     53 H21         3.1554   -2.4580    2.7914 H         1 <0>         0.0843
     54 H22         3.3238   -1.5207    1.2718 H         1 <0>         0.0752
     55 H23        -0.7261   -2.0929   -0.8763 H         1 <0>         0.4113
     56 H24         3.1102   -0.4989   -0.9693 H         1 <0>         0.1476
     57 H25         1.1630    3.1692    0.0104 H         1 <0>         0.1510
     58 H26        -0.8235   -0.8994    1.9955 H         1 <0>         0.3949
@<TRIPOS>BOND
     1    1    6 ar
     2    1    2 ar
     3    1   36 1
     4    2    3 ar
     5    2   37 1
     6    3   26 1
     7    3    4 ar
     8    4    5 ar
     9    4   17 1
    10    5    6 ar
    11    5   38 1
    12    6    7 1
    13    7    8 2
    14    7    9 2
    15    7   10 1
    16   10   11 1
    17   10   39 1
    18   11   16 1
    19   11   12 1
    20   11   40 1
    21   12   13 1
    22   12   41 1
    23   12   42 1
    24   13   14 1
    25   13   43 1
    26   13   44 1
    27   14   15 1
    28   14   45 1
    29   14   46 1
    30   15   16 1
    31   15   47 1
    32   15   48 1
    33   16   49 1
    34   16   50 1
    35   17   18 1
    36   17   22 1
    37   17   19 1
    38   19   20 2
    39   19   51 1
    40   20   21 1
    41   20   52 1
    42   21   22 1
    43   21   53 1
    44   21   54 1
    45   22   23 1
    46   22   24 1
    47   24   25 1
    48   24   26 1
    49   24   27 1
    50   26   55 1
    51   27   32 ar
    52   27   28 ar
    53   28   29 ar
    54   28   56 1
    55   29   30 ar
    56   29   35 1
    57   30   31 ar
    58   30   57 1
    59   31   32 ar
    60   31   34 1
    61   32   33 1
    62   33   58 1
@<TRIPOS>MOLECULE
ZINC32527475
   64    67     0     0     0
SMALL
USER_CHARGES
4-(p-tolyl)-2-[[(2R)-2-(4,6,8-trimethyl-2-oxo-1-quinolyl)butanoyl]amino]thiophene-3-carboxamide
@<TRIPOS>ATOM
      1 C1          6.5631    1.4790    1.9775 C.3       1 <0>        -0.1395
      2 C2          5.3454    1.1150    1.1256 C.3       1 <0>        -0.1795
      3 C3          5.7943    0.8248   -0.3080 C.3       1 <0>         0.0514
      4 H1          6.3849    1.6595   -0.7137 H         1 <0>         0.1829
      5 C4          4.5847    0.5867   -1.1747 C.2       1 <0>         0.5051
      6 O1          4.4480   -0.4738   -1.7469 O.2       1 <0>        -0.4873
      7 N1          3.6548    1.5523   -1.3139 N.am      1 <0>        -0.6310
      8 C5          2.5421    1.3333   -2.1111 C.2       1 <0>         0.0845
      9 C6          1.4895    2.1983   -2.3737 C.2       1 <0>        -0.2262
     10 C7          0.4454    1.7085   -3.2531 C.2       1 <0>        -0.0266
     11 C8          0.5961    0.4490   -3.7370 C.2       1 <0>        -0.2283
     12 S1          2.1349   -0.0843   -3.0173 S.3       1 <0>         0.2272
     13 C9         -0.7255    2.5442   -3.6109 C.ar      1 <0>        -0.0455
     14 C10        -1.4662    3.1753   -2.6124 C.ar      1 <0>        -0.0947
     15 C11        -2.5523    3.9559   -2.9519 C.ar      1 <0>        -0.1198
     16 C12        -2.9130    4.1043   -4.2791 C.ar      1 <0>        -0.0807
     17 C13        -2.1850    3.4763   -5.2738 C.ar      1 <0>        -0.1227
     18 C14        -1.0938    2.6975   -4.9468 C.ar      1 <0>        -0.0986
     19 C15        -4.1040    4.9530   -4.6428 C.3       1 <0>        -0.1193
     20 C16         1.4355    3.5411   -1.7909 C.2       1 <0>         0.5896
     21 O2          0.8912    3.7168   -0.7164 O.2       1 <0>        -0.5406
     22 N2          1.9883    4.5821   -2.4445 N.am      1 <0>        -0.8682
     23 N3          6.6466   -0.3667   -0.3211 N.am      1 <0>        -0.4954
     24 C17         6.4737   -1.3154    0.6159 C.2       1 <0>         0.5445
     25 O3          5.6084   -1.1649    1.4611 O.2       1 <0>        -0.5233
     26 C18         7.2647   -2.4839    0.6416 C.2       1 <0>        -0.2244
     27 C19         8.2376   -2.6707   -0.2844 C.2       1 <0>         0.0173
     28 C20         8.4384   -1.6406   -1.3052 C.ar      1 <0>        -0.1157
     29 C21         7.6182   -0.4964   -1.2906 C.ar      1 <0>         0.1947
     30 C22         7.8015    0.4875   -2.2563 C.ar      1 <0>        -0.1293
     31 C23         8.7817    0.3327   -3.2129 C.ar      1 <0>        -0.0600
     32 C24         9.5882   -0.7969   -3.2244 C.ar      1 <0>        -0.1111
     33 C25         9.4260   -1.7766   -2.2860 C.ar      1 <0>        -0.0608
     34 C26        10.6525   -0.9438   -4.2812 C.3       1 <0>        -0.1153
     35 C27         6.9324    1.7187   -2.2562 C.3       1 <0>        -0.1335
     36 C28         9.0928   -3.9113   -0.2634 C.3       1 <0>        -0.1308
     37 H2          6.2404    1.6876    3.0082 H         1 <0>         0.0649
     38 H3          7.0504    2.3715    1.5581 H         1 <0>         0.0482
     39 H4          7.2739    0.6395    1.9787 H         1 <0>         0.0508
     40 H5          4.8581    0.2225    1.5450 H         1 <0>         0.1565
     41 H6          4.6345    1.9545    1.1244 H         1 <0>         0.0676
     42 H7          3.7788    2.5142   -0.7949 H         1 <0>         0.4453
     43 H8         -0.0596   -0.0979   -4.3984 H         1 <0>         0.1888
     44 H9         -1.1880    3.0567   -1.5756 H         1 <0>         0.1304
     45 H10        -3.1242    4.4488   -2.1796 H         1 <0>         0.1224
     46 H11        -2.4715    3.5955   -6.3083 H         1 <0>         0.1236
     47 H12        -0.5264    2.2074   -5.7241 H         1 <0>         0.1238
     48 H13        -4.2349    4.9523   -5.7350 H         1 <0>         0.0659
     49 H14        -3.9404    5.9832   -4.2937 H         1 <0>         0.0702
     50 H15        -5.0060    4.5429   -4.1652 H         1 <0>         0.0709
     51 H16         1.9478    5.5905   -2.0069 H         1 <0>         0.4226
     52 H17         2.4800    4.4234   -3.4156 H         1 <0>         0.4209
     53 H18         7.0978   -3.2299    1.4045 H         1 <0>         0.1549
     54 H19         8.9230    1.0978   -3.9619 H         1 <0>         0.1327
     55 H20        10.0576   -2.6526   -2.3018 H         1 <0>         0.1382
     56 H21        11.1874   -1.8936   -4.1333 H         1 <0>         0.0678
     57 H22        11.3627   -0.1073   -4.2051 H         1 <0>         0.0716
     58 H23        10.1842   -0.9378   -5.2765 H         1 <0>         0.0715
     59 H24         7.2261    2.3748   -3.0888 H         1 <0>         0.0838
     60 H25         7.0575    2.2557   -1.3044 H         1 <0>         0.0962
     61 H26         5.8793    1.4241   -2.3753 H         1 <0>         0.0712
     62 H27         9.8166   -3.8717   -1.0908 H         1 <0>         0.0767
     63 H28         8.4536   -4.7992   -0.3775 H         1 <0>         0.0867
     64 H29         9.6324   -3.9685    0.6934 H         1 <0>         0.0866
@<TRIPOS>BOND
     1    1    2 1
     2    1   37 1
     3    1   38 1
     4    1   39 1
     5    2    3 1
     6    2   40 1
     7    2   41 1
     8    3    4 1
     9    3    5 1
    10    3   23 1
    11    5    6 2
    12    5    7 am
    13    7    8 1
    14    7   42 1
    15    8   12 1
    16    8    9 2
    17    9   10 1
    18    9   20 1
    19   10   11 2
    20   10   13 1
    21   11   12 1
    22   11   43 1
    23   13   18 ar
    24   13   14 ar
    25   14   15 ar
    26   14   44 1
    27   15   16 ar
    28   15   45 1
    29   16   17 ar
    30   16   19 1
    31   17   18 ar
    32   17   46 1
    33   18   47 1
    34   19   48 1
    35   19   49 1
    36   19   50 1
    37   20   21 2
    38   20   22 am
    39   22   51 1
    40   22   52 1
    41   23   29 1
    42   23   24 am
    43   24   25 2
    44   24   26 1
    45   26   27 2
    46   26   53 1
    47   27   28 1
    48   27   36 1
    49   28   33 ar
    50   28   29 ar
    51   29   30 ar
    52   30   31 ar
    53   30   35 1
    54   31   32 ar
    55   31   54 1
    56   32   33 ar
    57   32   34 1
    58   33   55 1
    59   34   56 1
    60   34   57 1
    61   34   58 1
    62   35   59 1
    63   35   60 1
    64   35   61 1
    65   36   62 1
    66   36   63 1
    67   36   64 1
@<TRIPOS>MOLECULE
ZINC35095088
   59    61     0     0     0
SMALL
USER_CHARGES

@<TRIPOS>ATOM
      1 C1          0.3715    2.0547    1.9730 C.3       1 <0>        -0.1141
      2 C2          0.3635    0.5506    2.0660 C.ar      1 <0>        -0.1054
      3 C3          0.0684   -0.0647    3.2687 C.ar      1 <0>        -0.0990
      4 C4          0.0603   -1.4430    3.3572 C.ar      1 <0>        -0.1485
      5 C5          0.3484   -2.2110    2.2366 C.ar      1 <0>         0.1532
      6 C6          0.6439   -1.5900    1.0301 C.ar      1 <0>        -0.1368
      7 C7          0.6457   -0.2113    0.9470 C.ar      1 <0>        -0.0995
      8 N1          0.3414   -3.6076    2.3230 N.am      1 <0>        -0.6768
      9 C8          0.1593   -4.3506    1.2134 C.2       1 <0>         0.7100
     10 O1          0.1396   -3.8170    0.1210 O.2       1 <0>        -0.5501
     11 N2         -0.0011   -5.6849    1.3146 N.am      1 <0>        -0.5794
     12 C9         -0.0611   -6.3174    2.6347 C.3       1 <0>         0.1119
     13 C10        -1.5139   -6.3642    3.1122 C.3       1 <0>        -0.1548
     14 C11        -1.5766   -7.0247    4.4908 C.3       1 <0>         0.1391
     15 N3         -2.9677   -7.0695    4.9481 N.am      1 <0>        -0.7387
     16 C12        -3.2665   -7.6119    6.1451 C.2       1 <0>         0.7033
     17 O2         -2.3815   -8.0642    6.8456 O.2       1 <0>        -0.5649
     18 N4         -4.5463   -7.6531    6.5658 N.am      1 <0>        -0.6857
     19 C13        -4.8393   -8.0393    7.8785 C.ar      1 <0>         0.1679
     20 C14        -6.0231   -8.7093    8.1591 C.ar      1 <0>        -0.1173
     21 C15        -6.3090   -9.0896    9.4555 C.ar      1 <0>        -0.0961
     22 C16        -5.4183   -8.8034   10.4740 C.ar      1 <0>        -0.0913
     23 C17        -4.2392   -8.1362   10.1981 C.ar      1 <0>        -0.1608
     24 C18        -3.9445   -7.7587    8.9024 C.ar      1 <0>        -0.0746
     25 C19        -3.2719   -7.8256   11.3112 C.3       1 <0>         0.5091
     26 F1         -3.7829   -8.3075   12.5211 F         1 <0>        -0.1760
     27 F2         -2.0432   -8.4399   11.0462 F         1 <0>        -0.1726
     28 F3         -3.0917   -6.4411   11.3995 F         1 <0>        -0.1763
     29 C20        -0.1103   -6.4669    0.1579 C.ar      1 <0>         0.1414
     30 C21        -1.2256   -6.3459   -0.6602 C.ar      1 <0>        -0.0711
     31 C22        -1.3314   -7.1179   -1.8005 C.ar      1 <0>        -0.1429
     32 C23        -0.3262   -8.0122   -2.1281 C.ar      1 <0>         0.1040
     33 C24         0.7869   -8.1344   -1.3135 C.ar      1 <0>        -0.1428
     34 C25         0.8992   -7.3600   -0.1754 C.ar      1 <0>        -0.0884
     35 F4         -0.4318   -8.7668   -3.2437 F         1 <0>        -0.1358
     36 H1         -0.6246    2.4075    1.7056 H         1 <0>         0.0691
     37 H2          0.6601    2.4767    2.9357 H         1 <0>         0.0654
     38 H3          1.0846    2.3678    1.2105 H         1 <0>         0.0659
     39 H4         -0.1556    0.5331    4.1398 H         1 <0>         0.1255
     40 H5         -0.1696   -1.9230    4.2969 H         1 <0>         0.1233
     41 H6          0.8684   -2.1844    0.1569 H         1 <0>         0.1627
     42 H7          0.8717    0.2722    0.0082 H         1 <0>         0.1246
     43 H8          0.4677   -4.0410    3.1816 H         1 <0>         0.4072
     44 H9          0.3329   -7.3317    2.5699 H         1 <0>         0.0969
     45 H10         0.5353   -5.7405    3.3415 H         1 <0>         0.0834
     46 H11        -1.9079   -5.3499    3.1770 H         1 <0>         0.0766
     47 H12        -2.1103   -6.9411    2.4054 H         1 <0>         0.0819
     48 H13        -1.1827   -8.0390    4.4260 H         1 <0>         0.0751
     49 H14        -0.9803   -6.4478    5.1976 H         1 <0>         0.0735
     50 H15        -3.6738   -6.7087    4.3893 H         1 <0>         0.4001
     51 H16        -5.2643   -7.4150    5.9586 H         1 <0>         0.4111
     52 H17        -6.7194   -8.9324    7.3642 H         1 <0>         0.1362
     53 H18        -7.2294   -9.6106    9.6742 H         1 <0>         0.1412
     54 H19        -5.6444   -9.1015   11.4871 H         1 <0>         0.1410
     55 H20        -3.0212   -7.2414    8.6868 H         1 <0>         0.1460
     56 H21        -2.0100   -5.6488   -0.4049 H         1 <0>         0.1334
     57 H22        -2.1989   -7.0244   -2.4370 H         1 <0>         0.1410
     58 H23         1.5696   -8.8326   -1.5705 H         1 <0>         0.1420
     59 H24         1.7696   -7.4523    0.4573 H         1 <0>         0.1364
@<TRIPOS>BOND
     1    1    2 1
     2    1   36 1
     3    1   37 1
     4    1   38 1
     5    2    7 ar
     6    2    3 ar
     7    3    4 ar
     8    3   39 1
     9    4    5 ar
    10    4   40 1
    11    5    6 ar
    12    5    8 1
    13    6    7 ar
    14    6   41 1
    15    7   42 1
    16    8    9 am
    17    8   43 1
    18    9   10 2
    19    9   11 am
    20   11   12 1
    21   11   29 1
    22   12   13 1
    23   12   44 1
    24   12   45 1
    25   13   14 1
    26   13   46 1
    27   13   47 1
    28   14   15 1
    29   14   48 1
    30   14   49 1
    31   15   16 am
    32   15   50 1
    33   16   17 2
    34   16   18 am
    35   18   19 1
    36   18   51 1
    37   19   24 ar
    38   19   20 ar
    39   20   21 ar
    40   20   52 1
    41   21   22 ar
    42   21   53 1
    43   22   23 ar
    44   22   54 1
    45   23   24 ar
    46   23   25 1
    47   24   55 1
    48   25   26 1
    49   25   27 1
    50   25   28 1
    51   29   34 ar
    52   29   30 ar
    53   30   31 ar
    54   30   56 1
    55   31   32 ar
    56   31   57 1
    57   32   33 ar
    58   32   35 1
    59   33   34 ar
    60   33   58 1
    61   34   59 1
@<TRIPOS>MOLECULE
ZINC62039579
   62    66     0     0     0
SMALL
USER_CHARGES

@<TRIPOS>ATOM
      1 C1         -0.6957    1.4666    0.1182 C.3       1 <0>        -0.1073
      2 C2         -0.5099   -0.0284    0.0795 C.2       1 <0>        -0.0994
      3 C3         -0.6135   -0.7144   -1.1419 C.2       1 <0>        -0.0938
      4 C4         -0.4448   -2.0637   -1.1734 C.2       1 <0>        -0.0752
      5 C5         -0.1679   -2.7536    0.0248 C.2       1 <0>         0.2365
      6 N1          0.0374   -4.0365    0.2839 N.2       1 <0>        -0.4755
      7 C6          0.2631   -4.1888    1.5983 C.2       1 <0>         0.1219
      8 C7          0.1983   -2.9627    2.1883 C.2       1 <0>        -0.0438
      9 N2         -0.0728   -2.0563    1.2017 N.pl3     1 <0>        -0.3431
     10 C8         -0.2393   -0.7012    1.2176 C.2       1 <0>         0.0482
     11 C9          0.3890   -2.6623    3.6527 C.3       1 <0>        -0.0560
     12 C10        -0.9544   -2.6082    4.3335 C.2       1 <0>         0.5020
     13 O1         -1.9669   -2.7952    3.6926 O.2       1 <0>        -0.4805
     14 N3         -1.0306   -2.3520    5.6545 N.am      1 <0>        -0.6203
     15 C11        -2.2667   -2.3023    6.2809 C.2       1 <0>         0.0357
     16 C12        -2.5354   -2.0489    7.6168 C.2       1 <0>        -0.2337
     17 C13        -3.9289   -2.0526    8.0262 C.2       1 <0>        -0.0621
     18 C14        -4.7982   -2.3086    7.0248 C.2       1 <0>        -0.2222
     19 S1         -3.7822   -2.5278    5.5937 S.3       1 <0>         0.2871
     20 C15        -6.2907   -2.3790    7.1252 C.3       1 <0>        -0.0300
     21 C16        -6.7147   -1.7456    8.4585 C.3       1 <0>        -0.0872
     22 H1         -6.5798   -0.6651    8.4086 H         1 <0>         0.0759
     23 C17        -5.8436   -2.3200    9.5794 C.3       1 <0>        -0.1133
     24 C18        -4.4117   -1.7964    9.4462 C.3       1 <0>        -0.0594
     25 C19        -8.1852   -2.0662    8.7335 C.3       1 <0>        -0.1478
     26 C20        -1.4580   -1.7886    8.5766 C.2       1 <0>         0.5855
     27 O2         -1.0747   -0.6492    8.7669 O.2       1 <0>        -0.5341
     28 N4         -0.8920   -2.8110    9.2481 N.am      1 <0>        -0.8481
     29 C21         0.5361   -5.4730    2.2903 C.ar      1 <0>        -0.0173
     30 C22        -0.0692   -5.7494    3.5148 C.ar      1 <0>        -0.0828
     31 C23         0.1873   -6.9444    4.1546 C.ar      1 <0>        -0.1470
     32 C24         1.0454   -7.8692    3.5815 C.ar      1 <0>         0.1037
     33 C25         1.6495   -7.5984    2.3648 C.ar      1 <0>        -0.1158
     34 C26         1.3936   -6.4081    1.7148 C.ar      1 <0>        -0.0582
     35 C27         2.5825   -8.6077    1.7468 C.3       1 <0>        -0.1161
     36 F1          1.2938   -9.0383    4.2115 F         1 <0>        -0.1351
     37 H2          0.2660    1.9563   -0.0353 H         1 <0>         0.0781
     38 H3         -1.3864    1.7674   -0.6695 H         1 <0>         0.0778
     39 H4         -1.1009    1.7575    1.0874 H         1 <0>         0.0704
     40 H5         -0.8264   -0.1730   -2.0518 H         1 <0>         0.1462
     41 H6         -0.5226   -2.6013   -2.1068 H         1 <0>         0.1555
     42 H7         -0.1578   -0.1632    2.1505 H         1 <0>         0.1574
     43 H8          0.9959   -3.4449    4.1081 H         1 <0>         0.1294
     44 H9          0.8917   -1.7016    3.7641 H         1 <0>         0.1120
     45 H10        -0.2208   -2.2025    6.1670 H         1 <0>         0.4196
     46 H11        -6.7409   -1.8301    6.2981 H         1 <0>         0.0804
     47 H12        -6.6123   -3.4200    7.0943 H         1 <0>         0.0833
     48 H13        -6.2507   -2.0192   10.5447 H         1 <0>         0.0709
     49 H14        -5.8391   -3.4079    9.5129 H         1 <0>         0.0672
     50 H15        -3.7649   -2.3177   10.1520 H         1 <0>         0.0725
     51 H16        -4.3928   -0.7260    9.6513 H         1 <0>         0.0793
     52 H17        -8.3175   -3.1468    8.7873 H         1 <0>         0.0572
     53 H18        -8.4844   -1.6160    9.6800 H         1 <0>         0.0585
     54 H19        -8.8013   -1.6643    7.9292 H         1 <0>         0.0579
     55 H20        -1.1975   -3.7191    9.0964 H         1 <0>         0.4036
     56 H21        -0.1793   -2.6388    9.8831 H         1 <0>         0.4033
     57 H22        -0.7379   -5.0290    3.9624 H         1 <0>         0.1266
     58 H23        -0.2810   -7.1593    5.1038 H         1 <0>         0.1388
     59 H24         1.8613   -6.1998    0.7639 H         1 <0>         0.1391
     60 H25         2.0147   -9.2839    1.1078 H         1 <0>         0.0772
     61 H26         3.3343   -8.0902    1.1508 H         1 <0>         0.0745
     62 H27         3.0735   -9.1788    2.5348 H         1 <0>         0.0716
@<TRIPOS>BOND
     1    1    2 1
     2    1   37 1
     3    1   38 1
     4    1   39 1
     5    2   10 2
     6    2    3 1
     7    3    4 2
     8    3   40 1
     9    4    5 1
    10    4   41 1
    11    5    9 1
    12    5    6 2
    13    6    7 1
    14    7    8 2
    15    7   29 1
    16    8    9 1
    17    8   11 1
    18    9   10 1
    19   10   42 1
    20   11   12 1
    21   11   43 1
    22   11   44 1
    23   12   13 2
    24   12   14 am
    25   14   15 1
    26   14   45 1
    27   15   19 1
    28   15   16 2
    29   16   17 1
    30   16   26 1
    31   17   24 1
    32   17   18 2
    33   18   19 1
    34   18   20 1
    35   20   21 1
    36   20   46 1
    37   20   47 1
    38   21   22 1
    39   21   23 1
    40   21   25 1
    41   23   24 1
    42   23   48 1
    43   23   49 1
    44   24   50 1
    45   24   51 1
    46   25   52 1
    47   25   53 1
    48   25   54 1
    49   26   27 2
    50   26   28 am
    51   28   55 1
    52   28   56 1
    53   29   34 ar
    54   29   30 ar
    55   30   31 ar
    56   30   57 1
    57   31   32 ar
    58   31   58 1
    59   32   33 ar
    60   32   36 1
    61   33   34 ar
    62   33   35 1
    63   34   59 1
    64   35   60 1
    65   35   61 1
    66   35   62 1
@<TRIPOS>MOLECULE
ZINC06883022
   56    58     0     0     0
SMALL
USER_CHARGES
N-[4-(cyclohexylcarbonylaminocarbamoyl)phenyl]cyclohexanecarboxamide
@<TRIPOS>ATOM
      1 C1         -3.7074    3.0575    0.2114 C.ar      1 <0>        -0.0615
      2 C2         -4.9091    3.7294    0.2201 C.ar      1 <0>        -0.1534
      3 C3         -6.0994    3.0313    0.0422 C.ar      1 <0>         0.1818
      4 C4         -6.0794    1.6534   -0.1499 C.ar      1 <0>        -0.1308
      5 C5         -4.8809    0.9763   -0.1649 C.ar      1 <0>        -0.0293
      6 C6         -3.6834    1.6744    0.0131 C.ar      1 <0>        -0.1505
      7 C7         -2.3966    0.9517   -0.0025 C.2       1 <0>         0.5649
      8 O1         -2.3776   -0.2524   -0.1702 O.2       1 <0>        -0.5355
      9 N1         -1.2426    1.6264    0.1693 N.am      1 <0>        -0.5225
     10 N2         -0.0212    0.9404    0.1545 N.am      1 <0>        -0.5219
     11 C8          1.1332    1.6160    0.3207 C.2       1 <0>         0.5187
     12 O2          1.1142    2.8170    0.4880 O.2       1 <0>        -0.5367
     13 C9          2.4474    0.8789    0.2986 C.3       1 <0>        -0.0938
     14 C10         2.4657   -0.1648    1.4172 C.3       1 <0>        -0.1148
     15 C11         3.8000   -0.9131    1.3948 C.3       1 <0>        -0.1183
     16 C12         4.9451    0.0796    1.6049 C.3       1 <0>        -0.1241
     17 C13         4.9268    1.1234    0.4863 C.3       1 <0>        -0.1204
     18 C14         3.5925    1.8717    0.5088 C.3       1 <0>        -0.0991
     19 N3         -7.3151    3.7141    0.0568 N.am      1 <0>        -0.6757
     20 C15        -8.4173    3.1172    0.5521 C.2       1 <0>         0.5177
     21 O3         -8.3336    2.0246    1.0718 O.2       1 <0>        -0.5090
     22 C16        -9.7538    3.8074    0.4601 C.3       1 <0>        -0.1042
     23 C17        -9.6905    5.1427    1.2043 C.3       1 <0>        -0.1127
     24 C18       -11.0474    5.8434    1.1109 C.3       1 <0>        -0.1182
     25 C19       -12.1233    4.9579    1.7427 C.3       1 <0>        -0.1241
     26 C20       -12.1866    3.6226    0.9985 C.3       1 <0>        -0.1205
     27 C21       -10.8297    2.9219    1.0919 C.3       1 <0>        -0.1012
     28 H1         -2.7841    3.5994    0.3537 H         1 <0>         0.1311
     29 H2         -4.9281    4.7988    0.3692 H         1 <0>         0.1358
     30 H3         -7.0052    1.1146   -0.2877 H         1 <0>         0.1438
     31 H4         -4.8661   -0.0932   -0.3143 H         1 <0>         0.1431
     32 H5         -1.2578    2.5871    0.3031 H         1 <0>         0.4309
     33 H6         -0.0060   -0.0202    0.0207 H         1 <0>         0.4327
     34 H7          2.5693    0.3821   -0.6639 H         1 <0>         0.1047
     35 H8          2.3438    0.3319    2.3797 H         1 <0>         0.0716
     36 H9          1.6499   -0.8721    1.2675 H         1 <0>         0.0686
     37 H10         3.9218   -1.4099    0.4322 H         1 <0>         0.0665
     38 H11         3.8130   -1.6567    2.1916 H         1 <0>         0.0686
     39 H12         5.8957   -0.4535    1.5889 H         1 <0>         0.0650
     40 H13         4.8232    0.5764    2.5674 H         1 <0>         0.0638
     41 H14         5.0487    0.6266   -0.4762 H         1 <0>         0.0643
     42 H15         5.7426    1.8306    0.6360 H         1 <0>         0.0684
     43 H16         3.5795    2.6153   -0.2881 H         1 <0>         0.0718
     44 H17         3.4707    2.3684    1.4713 H         1 <0>         0.0723
     45 H18        -7.3675    4.6187   -0.2895 H         1 <0>         0.4142
     46 H19        -9.9991    3.9863   -0.5868 H         1 <0>         0.1034
     47 H20        -9.4452    4.9639    2.2512 H         1 <0>         0.0708
     48 H21        -8.9240    5.7736    0.7542 H         1 <0>         0.0664
     49 H22       -11.2927    6.0223    0.0640 H         1 <0>         0.0658
     50 H23       -11.0023    6.7947    1.6412 H         1 <0>         0.0680
     51 H24       -13.0899    5.4571    1.6762 H         1 <0>         0.0650
     52 H25       -11.8780    4.7791    2.7896 H         1 <0>         0.0637
     53 H26       -12.4318    3.8015   -0.0484 H         1 <0>         0.0637
     54 H27       -12.9531    2.9918    1.4486 H         1 <0>         0.0681
     55 H28       -10.8748    1.9706    0.5616 H         1 <0>         0.0713
     56 H29       -10.5844    2.7430    2.1387 H         1 <0>         0.0717
@<TRIPOS>BOND
     1    1    6 ar
     2    1    2 ar
     3    1   28 1
     4    2    3 ar
     5    2   29 1
     6    3    4 ar
     7    3   19 1
     8    4    5 ar
     9    4   30 1
    10    5    6 ar
    11    5   31 1
    12    6    7 1
    13    7    8 2
    14    7    9 am
    15    9   10 1
    16    9   32 1
    17   10   11 am
    18   10   33 1
    19   11   12 2
    20   11   13 1
    21   13   18 1
    22   13   14 1
    23   13   34 1
    24   14   15 1
    25   14   35 1
    26   14   36 1
    27   15   16 1
    28   15   37 1
    29   15   38 1
    30   16   17 1
    31   16   39 1
    32   16   40 1
    33   17   18 1
    34   17   41 1
    35   17   42 1
    36   18   43 1
    37   18   44 1
    38   19   20 am
    39   19   45 1
    40   20   21 2
    41   20   22 1
    42   22   27 1
    43   22   23 1
    44   22   46 1
    45   23   24 1
    46   23   47 1
    47   23   48 1
    48   24   25 1
    49   24   49 1
    50   24   50 1
    51   25   26 1
    52   25   51 1
    53   25   52 1
    54   26   27 1
    55   26   53 1
    56   26   54 1
    57   27   55 1
    58   27   56 1
@<TRIPOS>MOLECULE
ZINC35380549
   42    43     0     0     0
SMALL
USER_CHARGES

@<TRIPOS>ATOM
      1 C1         -0.0187    1.5258    0.0104 C.3       1 <0>        -0.1491
      2 C2          0.0021   -0.0041    0.0020 C.3       1 <0>        -0.0996
      3 H1          0.5123   -0.3556   -0.8948 H         1 <0>         0.0876
      4 C3         -1.4333   -0.5336    0.0129 C.3       1 <0>        -0.1161
      5 C4         -1.4126   -2.0635    0.0045 C.3       1 <0>        -0.1221
      6 C5         -0.6726   -2.5703    1.2440 C.3       1 <0>        -0.1187
      7 C6          0.7628   -2.0407    1.2331 C.3       1 <0>        -0.1331
      8 C7          0.7421   -0.5109    1.2415 C.3       1 <0>         0.1541
      9 H2          1.7647   -0.1336    1.2338 H         1 <0>         0.0914
     10 N1          0.0564   -0.0384    2.4469 N.am      1 <0>        -0.7177
     11 C8          0.7380    0.0932    3.6021 C.2       1 <0>         0.5156
     12 O1          1.9190   -0.1795    3.6438 O.2       1 <0>        -0.5069
     13 C9          0.0326    0.5792    4.8420 C.3       1 <0>         0.0439
     14 O2          0.9605    0.6339    5.9274 O.3       1 <0>        -0.2981
     15 C10         0.4862    1.0516    7.1169 C.2       1 <0>         0.5236
     16 O3         -0.6828    1.3609    7.2298 O.2       1 <0>        -0.4658
     17 C11         1.3892    1.1335    8.2857 C.ar      1 <0>         0.1689
     18 C12         0.8908    1.5606    9.5135 C.ar      1 <0>        -0.1064
     19 C13         1.7557    1.6319   10.6063 C.ar      1 <0>         0.2837
     20 C14         3.0887    1.2703   10.4198 C.ar      1 <0>        -0.1315
     21 C15         3.5091    0.8550    9.1660 C.ar      1 <0>         0.2267
     22 N2          2.6678    0.7934    8.1551 N.ar      1 <0>        -0.4373
     23 Cl1         5.1681    0.4031    8.9266 Cl        1 <0>         0.0172
     24 Cl2         4.2102    1.3397   11.7431 Cl        1 <0>        -0.0118
     25 N3          1.2982    2.0546   11.8527 N.pl3     1 <0>        -0.8337
     26 Cl3        -0.7806    1.9983    9.6823 Cl        1 <0>         0.0059
     27 H3          1.0039    1.9031    0.0027 H         1 <0>         0.0576
     28 H4         -0.5459    1.8868   -0.8726 H         1 <0>         0.0586
     29 H5         -0.5289    1.8773    0.9072 H         1 <0>         0.0547
     30 H6         -1.9435   -0.1821    0.9097 H         1 <0>         0.0594
     31 H7         -1.9605   -0.1726   -0.8702 H         1 <0>         0.0679
     32 H8         -2.4352   -2.4408    0.0122 H         1 <0>         0.0633
     33 H9         -0.9024   -2.4150   -0.8923 H         1 <0>         0.0643
     34 H10        -1.1828   -2.2188    2.1408 H         1 <0>         0.0603
     35 H11        -0.6578   -3.6602    1.2380 H         1 <0>         0.0629
     36 H12         1.2900   -2.4018    2.1162 H         1 <0>         0.0698
     37 H13         1.2730   -2.3923    0.3363 H         1 <0>         0.0738
     38 H14        -0.8882    0.1796    2.4135 H         1 <0>         0.4003
     39 H15        -0.3749    1.5740    4.6618 H         1 <0>         0.1029
     40 H16        -0.7779   -0.1058    5.0910 H         1 <0>         0.1028
     41 H17         0.3680    2.3038   11.9690 H         1 <0>         0.4154
     42 H18         1.9099    2.0996   12.6042 H         1 <0>         0.4157
@<TRIPOS>BOND
     1    1    2 1
     2    1   27 1
     3    1   28 1
     4    1   29 1
     5    2    3 1
     6    2    8 1
     7    2    4 1
     8    4    5 1
     9    4   30 1
    10    4   31 1
    11    5    6 1
    12    5   32 1
    13    5   33 1
    14    6    7 1
    15    6   34 1
    16    6   35 1
    17    7    8 1
    18    7   36 1
    19    7   37 1
    20    8    9 1
    21    8   10 1
    22   10   11 am
    23   10   38 1
    24   11   12 2
    25   11   13 1
    26   13   14 1
    27   13   39 1
    28   13   40 1
    29   14   15 1
    30   15   16 2
    31   15   17 1
    32   17   22 ar
    33   17   18 ar
    34   18   19 ar
    35   18   26 1
    36   19   20 ar
    37   19   25 1
    38   20   21 ar
    39   20   24 1
    40   21   22 ar
    41   21   23 1
    42   25   41 1
    43   25   42 1
@<TRIPOS>MOLECULE
ZINC47757657
   53    56     0     0     0
SMALL
USER_CHARGES

@<TRIPOS>ATOM
      1 C1          1.2460    2.7731    0.2331 C.ar      1 <0>        -0.1460
      2 C2          2.4299    3.1292   -0.3866 C.ar      1 <0>        -0.0843
      3 C3          3.4542    2.2138   -0.5108 C.ar      1 <0>        -0.1367
      4 C4          3.3046    0.9217   -0.0128 C.ar      1 <0>         0.1033
      5 C5          2.1082    0.5738    0.6009 C.ar      1 <0>        -0.1742
      6 C6          1.0881    1.4906    0.7273 C.ar      1 <0>        -0.0691
      7 C7          2.2271   -0.8805    1.0138 C.3       1 <0>        -0.1013
      8 C8          3.4546   -1.3462    0.1955 C.3       1 <0>         0.0686
      9 H1          3.1433   -1.7803   -0.7546 H         1 <0>         0.0964
     10 O1          4.1784   -0.1221   -0.0166 O.3       1 <0>        -0.2990
     11 C9          4.2930   -2.3445    0.9965 C.3       1 <0>         0.1436
     12 N1          5.4458   -2.7663    0.1969 N.am      1 <0>        -0.7370
     13 C10         6.3297   -3.6492    0.7024 C.2       1 <0>         0.7056
     14 O2          6.1704   -4.0957    1.8219 O.2       1 <0>        -0.5664
     15 N2          7.3903   -4.0373   -0.0332 N.am      1 <0>        -0.6849
     16 C11         8.3556   -4.8754    0.5234 C.ar      1 <0>         0.1916
     17 C12         7.9786   -5.8652    1.4257 C.ar      1 <0>        -0.1284
     18 C13         8.9291   -6.6944    1.9770 C.ar      1 <0>        -0.0373
     19 C14        10.2740   -6.5414    1.6292 C.ar      1 <0>        -0.1559
     20 C15        10.6492   -5.5466    0.7222 C.ar      1 <0>        -0.0649
     21 C16         9.6930   -4.7239    0.1708 C.ar      1 <0>        -0.1555
     22 C17        11.2958   -7.4283    2.2187 C.2       1 <0>         0.5610
     23 O3         10.9680   -8.2931    3.0079 O.2       1 <0>        -0.5356
     24 N3         12.5924   -7.2795    1.8821 N.am      1 <0>        -0.7228
     25 C18        13.6067   -8.1599    2.4673 C.3       1 <0>         0.1394
     26 C19        14.1108   -7.5717    3.8014 C.3       1 <0>        -0.1357
     27 C20        15.6227   -7.9078    3.8175 C.3       1 <0>        -0.1253
     28 C21        16.0326   -7.7104    2.3369 C.3       1 <0>        -0.1248
     29 C22        14.8286   -8.2481    1.5362 C.3       1 <0>        -0.1319
     30 H2          0.4492    3.4950    0.3348 H         1 <0>         0.1298
     31 H3          2.5530    4.1291   -0.7756 H         1 <0>         0.1327
     32 H4          4.3758    2.5002   -0.9956 H         1 <0>         0.1283
     33 H5          0.1654    1.2085    1.2126 H         1 <0>         0.1264
     34 H6          2.4165   -0.9674    2.0837 H         1 <0>         0.0975
     35 H7          1.3354   -1.4399    0.7309 H         1 <0>         0.0981
     36 H8          4.6412   -1.8720    1.9149 H         1 <0>         0.0826
     37 H9          3.6843   -3.2143    1.2435 H         1 <0>         0.0941
     38 H10         5.5730   -2.4101   -0.6963 H         1 <0>         0.4028
     39 H11         7.4820   -3.7335   -0.9498 H         1 <0>         0.4100
     40 H12         6.9391   -5.9828    1.6941 H         1 <0>         0.1483
     41 H13         8.6359   -7.4619    2.6779 H         1 <0>         0.1400
     42 H14        11.6877   -5.4255    0.4515 H         1 <0>         0.1289
     43 H15         9.9818   -3.9576   -0.5333 H         1 <0>         0.1324
     44 H16        12.8540   -6.5896    1.2525 H         1 <0>         0.3982
     45 H17        13.1891   -9.1534    2.6305 H         1 <0>         0.0932
     46 H18        13.9597   -6.4924    3.8238 H         1 <0>         0.0700
     47 H19        13.6055   -8.0461    4.6426 H         1 <0>         0.0719
     48 H20        16.1650   -7.2176    4.4638 H         1 <0>         0.0694
     49 H21        15.7857   -8.9395    4.1292 H         1 <0>         0.0701
     50 H22        16.1918   -6.6536    2.1228 H         1 <0>         0.0670
     51 H23        16.9297   -8.2862    2.1095 H         1 <0>         0.0692
     52 H24        15.0045   -9.2845    1.2482 H         1 <0>         0.0761
     53 H25        14.6669   -7.6359    0.6490 H         1 <0>         0.0706
@<TRIPOS>BOND
     1    1    6 ar
     2    1    2 ar
     3    1   30 1
     4    2    3 ar
     5    2   31 1
     6    3    4 ar
     7    3   32 1
     8    4   10 1
     9    4    5 ar
    10    5    6 ar
    11    5    7 1
    12    6   33 1
    13    7    8 1
    14    7   34 1
    15    7   35 1
    16    8    9 1
    17    8   10 1
    18    8   11 1
    19   11   12 1
    20   11   36 1
    21   11   37 1
    22   12   13 am
    23   12   38 1
    24   13   14 2
    25   13   15 am
    26   15   16 1
    27   15   39 1
    28   16   21 ar
    29   16   17 ar
    30   17   18 ar
    31   17   40 1
    32   18   19 ar
    33   18   41 1
    34   19   20 ar
    35   19   22 1
    36   20   21 ar
    37   20   42 1
    38   21   43 1
    39   22   23 2
    40   22   24 am
    41   24   25 1
    42   24   44 1
    43   25   29 1
    44   25   26 1
    45   25   45 1
    46   26   27 1
    47   26   46 1
    48   26   47 1
    49   27   28 1
    50   27   48 1
    51   27   49 1
    52   28   29 1
    53   28   50 1
    54   28   51 1
    55   29   52 1
    56   29   53 1
@<TRIPOS>MOLECULE
ZINC56344573
   43    45     0     0     0
SMALL
USER_CHARGES

@<TRIPOS>ATOM
      1 C1          0.1372    1.3761    0.6745 C.ar      1 <0>        -0.1099
      2 C2          1.1555    2.0967    0.0777 C.ar      1 <0>        -0.0969
      3 C3          2.1996    1.4389   -0.5455 C.ar      1 <0>        -0.1680
      4 C4          2.2281    0.0541   -0.5736 C.ar      1 <0>         0.0699
      5 C5          1.2025   -0.6726    0.0274 C.ar      1 <0>         0.1538
      6 C6          0.1580   -0.0054    0.6509 C.ar      1 <0>        -0.0992
      7 N1          1.2257   -2.0726    0.0018 N.am      1 <0>        -0.6627
      8 C7          0.0758   -2.7677    0.1071 C.2       1 <0>         0.5634
      9 O1         -0.9894   -2.1818    0.1224 O.2       1 <0>        -0.5050
     10 C8          0.1096   -4.2424    0.2039 C.ar      1 <0>        -0.1206
     11 C9          1.3319   -4.9173    0.1923 C.ar      1 <0>        -0.1008
     12 C10         1.3607   -6.2937    0.2832 C.ar      1 <0>        -0.1038
     13 C11         0.1821   -7.0092    0.3860 C.ar      1 <0>        -0.1157
     14 C12        -1.0393   -6.3471    0.3979 C.ar      1 <0>         0.1569
     15 C13        -1.0789   -4.9640    0.3129 C.ar      1 <0>        -0.0560
     16 N2         -2.2297   -7.0762    0.5017 N.am      1 <0>        -0.6859
     17 C14        -3.3344   -6.6589   -0.1478 C.2       1 <0>         0.7062
     18 O2         -3.3219   -5.6043   -0.7528 O.2       1 <0>        -0.5626
     19 N3         -4.4529   -7.4105   -0.1267 N.am      1 <0>        -0.7110
     20 C15        -5.6537   -6.9569   -0.8327 C.3       1 <0>         0.0954
     21 C16        -6.9946   -7.1001   -0.1100 C.3       1 <0>        -0.1928
     22 C17        -6.6546   -8.0235   -1.2816 C.3       1 <0>        -0.1882
     23 O3          3.2541   -0.5943   -1.1866 O.3       1 <0>        -0.3158
     24 C18         4.2700    0.2155   -1.7818 C.3       1 <0>         0.6066
     25 F1          4.8640    1.0152   -0.7995 F         1 <0>        -0.1636
     26 F2          5.2408   -0.6069   -2.3635 F         1 <0>        -0.1300
     27 F3          3.6997    1.0311   -2.7651 F         1 <0>        -0.1627
     28 H1         -0.6740    1.8944    1.1641 H         1 <0>         0.1367
     29 H2          1.1349    3.1763    0.0983 H         1 <0>         0.1358
     30 H3          2.9931    2.0048   -1.0109 H         1 <0>         0.1377
     31 H4         -0.6384   -0.5657    1.1181 H         1 <0>         0.1603
     32 H5          2.0693   -2.5421   -0.0917 H         1 <0>         0.4154
     33 H6          2.2547   -4.3619    0.1118 H         1 <0>         0.1276
     34 H7          2.3071   -6.8140    0.2737 H         1 <0>         0.1372
     35 H8          0.2110   -8.0865    0.4569 H         1 <0>         0.1331
     36 H9         -2.0272   -4.4472    0.3265 H         1 <0>         0.1579
     37 H10        -2.2595   -7.8819    1.0411 H         1 <0>         0.4097
     38 H11        -4.4628   -8.2518    0.3560 H         1 <0>         0.3995
     39 H12        -5.5198   -6.0889   -1.4783 H         1 <0>         0.1419
     40 H13        -6.9834   -7.5319    0.8908 H         1 <0>         0.0974
     41 H14        -7.7432   -6.3262   -0.2799 H         1 <0>         0.1051
     42 H15        -7.1794   -7.8570   -2.2224 H         1 <0>         0.1062
     43 H16        -6.4196   -9.0627   -1.0517 H         1 <0>         0.0977
@<TRIPOS>BOND
     1    1    6 ar
     2    1    2 ar
     3    1   28 1
     4    2    3 ar
     5    2   29 1
     6    3    4 ar
     7    3   30 1
     8    4    5 ar
     9    4   23 1
    10    5    6 ar
    11    5    7 1
    12    6   31 1
    13    7    8 am
    14    7   32 1
    15    8    9 2
    16    8   10 1
    17   10   15 ar
    18   10   11 ar
    19   11   12 ar
    20   11   33 1
    21   12   13 ar
    22   12   34 1
    23   13   14 ar
    24   13   35 1
    25   14   15 ar
    26   14   16 1
    27   15   36 1
    28   16   17 am
    29   16   37 1
    30   17   18 2
    31   17   19 am
    32   19   20 1
    33   19   38 1
    34   20   22 1
    35   20   21 1
    36   20   39 1
    37   21   22 1
    38   21   40 1
    39   21   41 1
    40   22   42 1
    41   22   43 1
    42   23   24 1
    43   24   25 1
    44   24   26 1
    45   24   27 1
@<TRIPOS>MOLECULE
ZINC66980469
   51    52     0     0     0
SMALL
USER_CHARGES

@<TRIPOS>ATOM
      1 C1         -0.0214    1.5131   -0.0486 C.3       1 <0>        -0.1372
      2 C2         -0.0104   -0.0168   -0.0640 C.3       1 <0>        -0.1022
      3 C3          0.7390   -0.5339    1.1656 C.3       1 <0>        -0.1526
      4 C4         -1.4489   -0.5374   -0.0408 C.3       1 <0>         0.2150
      5 H1         -1.9828   -0.1691   -0.9168 H         1 <0>         0.0993
      6 C5         -1.4381   -2.0443   -0.0560 C.ar      1 <0>        -0.1309
      7 C6         -1.2074   -2.7446    1.1137 C.ar      1 <0>        -0.0721
      8 C7         -1.1965   -4.1260    1.1023 C.ar      1 <0>        -0.1495
      9 C8         -1.4177   -4.8105   -0.0839 C.ar      1 <0>         0.1315
     10 C9         -1.6493   -4.1055   -1.2561 C.ar      1 <0>        -0.2042
     11 C10        -1.6644   -2.7243   -1.2384 C.ar      1 <0>        -0.0628
     12 O1         -1.4071   -6.1694   -0.0977 O.3       1 <0>        -0.3170
     13 C11        -1.6423   -6.8073   -1.3547 C.3       1 <0>         0.0259
     14 N1         -2.1193   -0.0661    1.1735 N.am      1 <0>        -0.7291
     15 C12        -2.6965    1.1516    1.1952 C.2       1 <0>         0.7094
     16 O2         -2.6609    1.8590    0.2069 O.2       1 <0>        -0.5601
     17 N2         -3.3132    1.5852    2.3124 N.am      1 <0>        -0.6818
     18 C13        -3.8317    2.8865    2.3667 C.ar      1 <0>         0.1482
     19 C14        -4.3745    3.4654    1.2288 C.ar      1 <0>        -0.0744
     20 C15        -4.8873    4.7530    1.2853 C.ar      1 <0>         0.1243
     21 C16        -4.8564    5.4609    2.4818 C.ar      1 <0>         0.0852
     22 C17        -4.3143    4.8819    3.6151 C.ar      1 <0>        -0.1506
     23 C18        -3.8075    3.5955    3.5622 C.ar      1 <0>         0.0847
     24 F1         -3.2841    3.0300    4.6719 F         1 <0>        -0.1283
     25 F2         -5.3557    6.7150    2.5374 F         1 <0>        -0.1282
     26 N3         -5.4357    5.3403    0.1371 N.am      1 <0>        -0.6694
     27 C19        -6.1026    4.5815   -0.7550 C.2       1 <0>         0.5132
     28 O3         -6.1590    3.3790   -0.6062 O.2       1 <0>        -0.5185
     29 C20        -6.7784    5.2270   -1.9372 C.3       1 <0>        -0.1688
     30 H2          1.0035    1.8839   -0.0651 H         1 <0>         0.0468
     31 H3         -0.5552    1.8814   -0.9246 H         1 <0>         0.0636
     32 H4         -0.5201    1.8637    0.8549 H         1 <0>         0.0528
     33 H5          0.4884   -0.3675   -0.9675 H         1 <0>         0.0804
     34 H6          0.2402   -0.1832    2.0691 H         1 <0>         0.0524
     35 H7          0.7468   -1.6238    1.1547 H         1 <0>         0.0621
     36 H8          1.7638   -0.1630    1.1491 H         1 <0>         0.0553
     37 H9         -1.0353   -2.2113    2.0369 H         1 <0>         0.1284
     38 H10        -1.0157   -4.6726    2.0161 H         1 <0>         0.1328
     39 H11        -1.8217   -4.6361   -2.1808 H         1 <0>         0.1308
     40 H12        -1.8490   -2.1750   -2.1498 H         1 <0>         0.1286
     41 H13        -2.6237   -6.5182   -1.7308 H         1 <0>         0.0568
     42 H14        -0.8757   -6.5011   -2.0666 H         1 <0>         0.0569
     43 H15        -1.6069   -7.8890   -1.2254 H         1 <0>         0.1019
     44 H16        -2.1477   -0.6304    1.9620 H         1 <0>         0.3970
     45 H17        -3.3984    0.9968    3.0789 H         1 <0>         0.4116
     46 H18        -4.3974    2.9145    0.3002 H         1 <0>         0.1837
     47 H19        -4.2907    5.4331    4.5436 H         1 <0>         0.1583
     48 H20        -5.3352    6.2929   -0.0156 H         1 <0>         0.4169
     49 H21        -6.6201    6.3048   -1.9023 H         1 <0>         0.0803
     50 H22        -6.3566    4.8275   -2.8595 H         1 <0>         0.1017
     51 H23        -7.8472    5.0154   -1.9049 H         1 <0>         0.1018
@<TRIPOS>BOND
     1    1    2 1
     2    1   30 1
     3    1   31 1
     4    1   32 1
     5    2    3 1
     6    2    4 1
     7    2   33 1
     8    3   34 1
     9    3   35 1
    10    3   36 1
    11    4    5 1
    12    4    6 1
    13    4   14 1
    14    6   11 ar
    15    6    7 ar
    16    7    8 ar
    17    7   37 1
    18    8    9 ar
    19    8   38 1
    20    9   10 ar
    21    9   12 1
    22   10   11 ar
    23   10   39 1
    24   11   40 1
    25   12   13 1
    26   13   41 1
    27   13   42 1
    28   13   43 1
    29   14   15 am
    30   14   44 1
    31   15   16 2
    32   15   17 am
    33   17   18 1
    34   17   45 1
    35   18   23 ar
    36   18   19 ar
    37   19   20 ar
    38   19   46 1
    39   20   21 ar
    40   20   26 1
    41   21   22 ar
    42   21   25 1
    43   22   23 ar
    44   22   47 1
    45   23   24 1
    46   26   27 am
    47   26   48 1
    48   27   28 2
    49   27   29 1
    50   29   49 1
    51   29   50 1
    52   29   51 1
@<TRIPOS>MOLECULE
ZINC15768464
   48    50     0     0     0
SMALL
USER_CHARGES
3-[[(E)-2-[(4-bromobenzoyl)amino]-3-(4-nitrophenyl)prop-2-enoyl]amino]benzoic acid
@<TRIPOS>ATOM
      1 C1          2.3165    4.1770    0.0952 C.ar      1 <0>        -0.1239
      2 C2          2.9665    4.6188    1.2297 C.ar      1 <0>        -0.0852
      3 C3          2.5332    4.2015    2.4898 C.ar      1 <0>        -0.0967
      4 C4          1.4425    3.3376    2.5964 C.ar      1 <0>        -0.1022
      5 C5          0.7968    2.8997    1.4507 C.ar      1 <0>         0.1200
      6 C6          1.2395    3.3171    0.2006 C.ar      1 <0>        -0.1221
      7 N1         -0.2965    2.0336    1.5519 N.am      1 <0>        -0.6456
      8 C7         -1.2970    2.1033    0.6516 C.2       1 <0>         0.5753
      9 O1         -1.2151    2.8682   -0.2910 O.2       1 <0>        -0.5030
     10 C8         -2.4873    1.2550    0.8085 C.2       1 <0>         0.1259
     11 C9         -2.4594   -0.0330    0.3949 C.2       1 <0>        -0.1632
     12 C10        -1.2389   -0.5836   -0.2145 C.ar      1 <0>         0.0054
     13 C11        -0.4436    0.2164   -1.0415 C.ar      1 <0>        -0.1318
     14 C12         0.7009   -0.3060   -1.6058 C.ar      1 <0>        -0.0397
     15 C13         1.0585   -1.6209   -1.3632 C.ar      1 <0>        -0.0473
     16 C14         0.2743   -2.4203   -0.5499 C.ar      1 <0>        -0.0527
     17 C15        -0.8709   -1.9116    0.0253 C.ar      1 <0>        -0.1075
     18 N2          2.2859   -2.1752   -1.9772 N.pl3     1 <0>         0.0293
     19 O2          2.6034   -3.3319   -1.7662 O.2       1 <0>        -0.1645
     20 O3          2.9784   -1.4745   -2.6934 O.3       1 <0>        -0.1577
     21 N3         -3.6478    1.7790    1.3849 N.am      1 <0>        -0.6517
     22 C16        -3.6376    3.0194    1.9119 C.2       1 <0>         0.5479
     23 O4         -2.6557    3.7252    1.7863 O.2       1 <0>        -0.4668
     24 C17        -4.8199    3.5216    2.6423 C.ar      1 <0>        -0.1195
     25 C18        -5.9512    2.7156    2.7832 C.ar      1 <0>        -0.0796
     26 C19        -7.0493    3.1878    3.4710 C.ar      1 <0>        -0.0980
     27 C20        -7.0358    4.4627    4.0113 C.ar      1 <0>        -0.0637
     28 C21        -5.9189    5.2690    3.8699 C.ar      1 <0>        -0.0944
     29 C22        -4.8124    4.8061    3.1893 C.ar      1 <0>        -0.0442
     30 Br1        -8.5486    5.1051    4.9466 Br        1 <0>        -0.0382
     31 C23         3.2274    4.6725    3.7059 C.2       1 <0>         0.4908
     32 O5          2.8489    4.3077    4.8010 O.co2     1 <0>        -0.6321
     33 H1          2.6534    4.5006   -0.8785 H         1 <0>         0.1210
     34 H2          3.8104    5.2871    1.1429 H         1 <0>         0.1320
     35 H3          1.1025    3.0115    3.5682 H         1 <0>         0.1270
     36 H4          0.7378    2.9713   -0.6910 H         1 <0>         0.1307
     37 H5         -0.3327    1.3800    2.2677 H         1 <0>         0.4068
     38 H6         -3.3332   -0.6568    0.5122 H         1 <0>         0.1504
     39 H7         -0.7236    1.2413   -1.2351 H         1 <0>         0.1659
     40 H8          1.3179    0.3114   -2.2419 H         1 <0>         0.1556
     41 H9          0.5598   -3.4455   -0.3657 H         1 <0>         0.1549
     42 H10        -1.4822   -2.5368    0.6592 H         1 <0>         0.1506
     43 H11        -4.4605    1.2499    1.4056 H         1 <0>         0.4174
     44 H12        -5.9648    1.7228    2.3581 H         1 <0>         0.1358
     45 H13        -7.9232    2.5635    3.5849 H         1 <0>         0.1426
     46 H14        -5.9142    6.2624    4.2939 H         1 <0>         0.1454
     47 H15        -3.9418    5.4358    3.0800 H         1 <0>         0.1517
     48 O6          4.2800    5.5064    3.6003 O.co2     1 <0>        -0.7510
@<TRIPOS>BOND
     1    1    6 ar
     2    1    2 ar
     3    1   33 1
     4    2    3 ar
     5    2   34 1
     6    3    4 ar
     7    3   31 1
     8    4    5 ar
     9    4   35 1
    10    5    6 ar
    11    5    7 1
    12    6   36 1
    13    7    8 am
    14    7   37 1
    15    8    9 2
    16    8   10 1
    17   10   11 2
    18   10   21 1
    19   11   12 1
    20   11   38 1
    21   12   17 ar
    22   12   13 ar
    23   13   14 ar
    24   13   39 1
    25   14   15 ar
    26   14   40 1
    27   15   16 ar
    28   15   18 1
    29   16   17 ar
    30   16   41 1
    31   17   42 1
    32   18   19 2
    33   18   20 1
    34   21   22 am
    35   21   43 1
    36   22   23 2
    37   22   24 1
    38   24   29 ar
    39   24   25 ar
    40   25   26 ar
    41   25   44 1
    42   26   27 ar
    43   26   45 1
    44   27   28 ar
    45   27   30 1
    46   28   29 ar
    47   28   46 1
    48   29   47 1
    49   31   32 2
    50   31   48 1
@<TRIPOS>MOLECULE
ZINC35701846
   59    62     0     0     0
SMALL
USER_CHARGES

@<TRIPOS>ATOM
      1 C1          0.3306    1.1687    0.8845 C.3       1 <0>        -0.0923
      2 C2          0.2606   -0.2879    0.5046 C.2       1 <0>         0.3036
      3 C3         -0.9650   -0.9230    0.4433 C.2       1 <0>        -0.3945
      4 C4         -0.9830   -2.3851    0.0569 C.3       1 <0>         0.2579
      5 H1         -1.6074   -2.4900   -0.8304 H         1 <0>         0.0776
      6 N1          0.3284   -3.0260   -0.2279 N.pl3     1 <0>        -0.5148
      7 C5          0.5496   -4.3382   -0.5958 C.2       1 <0>         0.2310
      8 C6          1.8274   -4.7224   -0.8099 C.2       1 <0>        -0.3010
      9 S1          2.7238   -3.2166   -0.4884 S.3       1 <0>         0.1502
     10 C7          1.4267   -2.2209   -0.1102 C.2       1 <0>         0.3196
     11 N2          1.3727   -0.9487    0.2268 N.2       1 <0>        -0.5945
     12 C8         -0.5652   -5.2840   -0.7489 C.2       1 <0>        -0.4659
     13 C9         -0.3159   -6.5870   -0.9812 C.2       1 <0>         0.5045
     14 O1          0.9578   -7.0492   -0.9509 O.3       1 <0>        -0.7002
     15 N3         -1.3609   -7.4545   -1.2511 N.pl3     1 <0>        -0.7518
     16 C10        -1.0824   -8.8463   -1.6139 C.3       1 <0>         0.2193
     17 C11        -2.3715   -9.5391   -1.9736 C.2       1 <0>        -0.0164
     18 C12        -2.9110   -9.6077   -3.2039 C.2       1 <0>        -0.1996
     19 C13        -4.1109  -10.3458   -3.0844 C.2       1 <0>        -0.2168
     20 C14        -4.2329  -10.6842   -1.7883 C.2       1 <0>        -0.0445
     21 O2         -3.1735  -10.1978   -1.1212 O.3       1 <0>        -0.1726
     22 C15        -1.6405   -3.1523    1.1750 C.ar      1 <0>        -0.0352
     23 C16        -0.9586   -3.3712    2.3573 C.ar      1 <0>        -0.0940
     24 C17        -1.5617   -4.0749    3.3829 C.ar      1 <0>        -0.0712
     25 C18        -2.8468   -4.5595    3.2264 C.ar      1 <0>        -0.1864
     26 C19        -3.5291   -4.3398    2.0443 C.ar      1 <0>        -0.0735
     27 C20        -2.9276   -3.6323    1.0203 C.ar      1 <0>        -0.0772
     28 C21        -3.5039   -5.3275    4.3441 C.3       1 <0>         0.5095
     29 F1         -4.1911   -4.4398    5.1789 F         1 <0>        -0.1811
     30 F2         -4.4040   -6.2541    3.8070 F         1 <0>        -0.1790
     31 F3         -2.5266   -6.0017    5.0841 F         1 <0>        -0.1789
     32 C22        -2.1508   -0.2358    0.7297 C.2       1 <0>         0.5357
     33 O3         -2.1128    0.9423    1.0394 O.2       1 <0>        -0.5475
     34 O4         -3.3375   -0.8790    0.6628 O.3       1 <0>        -0.3501
     35 C23        -4.5068   -0.1163    0.9679 C.3       1 <0>         0.0831
     36 C24        -5.6953   -0.6666    0.1769 C.3       1 <0>        -0.1478
     37 C25        -4.8025   -0.2133    2.4659 C.3       1 <0>        -0.1667
     38 H2          1.3699    1.4970    0.8757 H         1 <0>         0.0645
     39 H3         -0.2428    1.7586    0.1694 H         1 <0>         0.0872
     40 H4         -0.0848    1.3041    1.8831 H         1 <0>         0.0866
     41 H5          2.2068   -5.6911   -1.0999 H         1 <0>         0.2344
     42 H6         -1.5843   -4.9340   -0.6751 H         1 <0>         0.0881
     43 H7         -2.2773   -7.1406   -1.1999 H         1 <0>         0.3880
     44 H8         -0.4061   -8.8707   -2.4683 H         1 <0>         0.0872
     45 H9         -0.6192   -9.3562   -0.7692 H         1 <0>         0.0665
     46 H10        -2.5056   -9.1804   -4.1091 H         1 <0>         0.1481
     47 H11        -4.7979  -10.5907   -3.8809 H         1 <0>         0.1460
     48 H12        -5.0432  -11.2538   -1.3577 H         1 <0>         0.1998
     49 H13         0.0455   -2.9926    2.4797 H         1 <0>         0.1170
     50 H14        -1.0287   -4.2465    4.3064 H         1 <0>         0.1286
     51 H15        -4.5330   -4.7187    1.9219 H         1 <0>         0.1295
     52 H16        -3.4620   -3.4575    0.0982 H         1 <0>         0.1307
     53 H17        -4.3415    0.9264    0.6969 H         1 <0>         0.0775
     54 H18        -5.8607   -1.7093    0.4478 H         1 <0>         0.0644
     55 H19        -6.5872   -0.0848    0.4096 H         1 <0>         0.0704
     56 H20        -5.4847   -0.5975   -0.8904 H         1 <0>         0.0611
     57 H21        -4.9678   -1.2560    2.7369 H         1 <0>         0.0619
     58 H22        -3.9558    0.1787    3.0294 H         1 <0>         0.0590
     59 H23        -5.6944    0.3684    2.6986 H         1 <0>         0.0649
@<TRIPOS>BOND
     1    1    2 1
     2    1   38 1
     3    1   39 1
     4    1   40 1
     5    2   11 1
     6    2    3 2
     7    3    4 1
     8    3   32 1
     9    4    5 1
    10    4    6 1
    11    4   22 1
    12    6   10 1
    13    6    7 1
    14    7    8 2
    15    7   12 1
    16    8    9 1
    17    8   41 1
    18    9   10 1
    19   10   11 2
    20   12   13 2
    21   12   42 1
    22   13   14 1
    23   13   15 1
    24   15   16 1
    25   15   43 1
    26   16   17 1
    27   16   44 1
    28   16   45 1
    29   17   21 1
    30   17   18 2
    31   18   19 1
    32   18   46 1
    33   19   20 2
    34   19   47 1
    35   20   21 1
    36   20   48 1
    37   22   27 ar
    38   22   23 ar
    39   23   24 ar
    40   23   49 1
    41   24   25 ar
    42   24   50 1
    43   25   26 ar
    44   25   28 1
    45   26   27 ar
    46   26   51 1
    47   27   52 1
    48   28   29 1
    49   28   30 1
    50   28   31 1
    51   32   33 2
    52   32   34 1
    53   34   35 1
    54   35   36 1
    55   35   37 1
    56   35   53 1
    57   36   54 1
    58   36   55 1
    59   36   56 1
    60   37   57 1
    61   37   58 1
    62   37   59 1
@<TRIPOS>MOLECULE
ZINC36369743
   80    83     0     0     0
SMALL
USER_CHARGES

@<TRIPOS>ATOM
      1 C1          1.1328    0.8474    0.3182 C.3       1 <0>        -0.2207
      2 C2         -0.0454   -0.0276   -0.0243 C.2       1 <0>         0.3694
      3 O1         -0.9710   -0.1225    0.7455 O.2       1 <0>        -0.4435
      4 C3         -0.0686   -0.7841   -1.3274 C.3       1 <0>        -0.1341
      5 H1          0.4045   -0.1943   -2.1125 H         1 <0>         0.0957
      6 C4         -1.5212   -1.1236   -1.7195 C.3       1 <0>        -0.1183
      7 C5         -1.6121   -2.6646   -1.7698 C.3       1 <0>        -0.1238
      8 C6         -0.4641   -3.1361   -0.8281 C.3       1 <0>        -0.0738
      9 H2         -0.1639   -4.1655   -1.0234 H         1 <0>         0.0808
     10 C7          0.6509   -2.1302   -1.1706 C.3       1 <0>        -0.0389
     11 C8          1.7472   -2.0873   -0.1306 C.3       1 <0>        -0.1147
     12 C9          1.1717   -1.8359    1.2619 C.3       1 <0>        -0.1722
     13 C10         0.1944   -2.9686    1.6006 C.3       1 <0>        -0.0552
     14 H3          0.7077   -3.9291    1.5537 H         1 <0>         0.0682
     15 C11        -0.9736   -2.9470    0.6040 C.3       1 <0>        -0.1005
     16 H4         -1.4827   -1.9861    0.6793 H         1 <0>         0.1115
     17 C12        -1.9850   -4.0535    0.9123 C.3       1 <0>        -0.1092
     18 C13        -2.5924   -3.8448    2.3035 C.3       1 <0>        -0.0913
     19 C14        -1.4433   -3.7667    3.2947 C.2       1 <0>        -0.0536
     20 C15        -1.4411   -4.5809    4.3405 C.2       1 <0>        -0.1738
     21 C16        -0.3040   -4.5336    5.2811 C.2       1 <0>         0.1712
     22 N1         -0.4195   -4.9051    6.5167 N.2       1 <0>        -0.3438
     23 O2         -1.6644   -5.3742    7.0016 O.3       1 <0>        -0.2110
     24 C17        -1.6471   -5.7493    8.3804 C.3       1 <0>         0.0578
     25 C18        -3.0161   -6.2304    8.7873 C.2       1 <0>         0.5127
     26 O3         -3.9178   -6.2500    7.9764 O.2       1 <0>        -0.5266
     27 N2         -3.2384   -6.6388   10.0523 N.am      1 <0>        -0.7179
     28 C19        -4.5692   -7.1064   10.4479 C.3       1 <0>         0.1360
     29 C20        -4.5507   -7.5081   11.9241 C.3       1 <0>        -0.0891
     30 C21        -3.5324   -8.6304   12.1345 C.3       1 <0>        -0.1430
     31 C22        -4.1607   -6.2991   12.7768 C.3       1 <0>        -0.1403
     32 C23        -5.9406   -7.9965   12.3372 C.3       1 <0>         0.0468
     33 H5         -6.2185   -8.8578   11.7298 H         1 <0>         0.0908
     34 C24        -5.9223   -8.3921   13.7912 C.2       1 <0>         0.4775
     35 O4         -6.5875   -7.7689   14.6010 O.co2     1 <0>        -0.6873
     36 O5         -5.2425   -9.3354   14.1578 O.co2     1 <0>        -0.6887
     37 O6         -6.8917   -6.9482   12.1407 O.3       1 <0>        -0.5587
     38 C25         1.0077   -4.0234    4.7142 C.3       1 <0>        -0.0571
     39 C26         0.7296   -2.6779    4.0448 C.3       1 <0>        -0.1097
     40 C27        -0.3491   -2.7355    3.0121 C.3       1 <0>        -0.0209
     41 C28        -1.0198   -1.3605    2.9939 C.3       1 <0>        -0.1464
     42 C29         1.2765   -2.5185   -2.5118 C.3       1 <0>        -0.1438
     43 H6          1.8772    0.2602    0.8559 H         1 <0>         0.1032
     44 H7          1.5726    1.2398   -0.5987 H         1 <0>         0.0821
     45 H8          0.8007    1.6749    0.9450 H         1 <0>         0.0851
     46 H9         -2.2113   -0.7326   -0.9720 H         1 <0>         0.0801
     47 H10        -1.7521   -0.7034   -2.6984 H         1 <0>         0.0649
     48 H11        -2.5780   -3.0034   -1.3951 H         1 <0>         0.0710
     49 H12        -1.4466   -3.0249   -2.7851 H         1 <0>         0.0644
     50 H13         2.2790   -3.0388   -0.1317 H         1 <0>         0.0697
     51 H14         2.4452   -1.2879   -0.3791 H         1 <0>         0.0662
     52 H15         1.9793   -1.8185    1.9937 H         1 <0>         0.0719
     53 H16         0.6442   -0.8821    1.2729 H         1 <0>         0.1049
     54 H17        -2.7787   -4.0353    0.1654 H         1 <0>         0.0660
     55 H18        -1.4833   -5.0206    0.8788 H         1 <0>         0.0595
     56 H19        -3.1624   -2.9160    2.3232 H         1 <0>         0.0784
     57 H20        -3.2413   -4.6840    2.5540 H         1 <0>         0.0730
     58 H21        -2.2585   -5.2680    4.5023 H         1 <0>         0.1302
     59 H22        -0.9217   -6.5489    8.5303 H         1 <0>         0.0849
     60 H23        -1.3693   -4.8880    8.9878 H         1 <0>         0.0847
     61 H24        -2.5173   -6.6231   10.7008 H         1 <0>         0.4002
     62 H25        -5.2947   -6.3068   10.2980 H         1 <0>         0.0736
     63 H26        -4.8471   -7.9677    9.8404 H         1 <0>         0.0654
     64 H27        -2.5422   -8.2825   11.8402 H         1 <0>         0.0351
     65 H28        -3.5192   -8.9166   13.1862 H         1 <0>         0.0976
     66 H29        -3.8103   -9.4917   11.5270 H         1 <0>         0.0490
     67 H30        -4.8861   -5.4995   12.6269 H         1 <0>         0.0532
     68 H31        -4.1475   -6.5852   13.8284 H         1 <0>         0.0683
     69 H32        -3.1705   -5.9511   12.4824 H         1 <0>         0.0470
     70 H33        -6.7067   -6.1484   12.6517 H         1 <0>         0.3682
     71 H34         1.7324   -3.8937    5.5180 H         1 <0>         0.0874
     72 H35         1.3924   -4.7299    3.9788 H         1 <0>         0.0915
     73 H36         0.4413   -1.9562    4.8091 H         1 <0>         0.0701
     74 H37         1.6415   -2.3299    3.5596 H         1 <0>         0.0819
     75 H38        -1.8698   -1.3798    2.3118 H         1 <0>         0.0727
     76 H39        -1.3647   -1.1112    3.9973 H         1 <0>         0.0449
     77 H40        -0.3026   -0.6108    2.6595 H         1 <0>         0.0692
     78 H41         2.0092   -1.7657   -2.8024 H         1 <0>         0.0558
     79 H42         1.7682   -3.4866   -2.4167 H         1 <0>         0.0583
     80 H43         0.4976   -2.5798   -3.2718 H         1 <0>         0.0593
@<TRIPOS>BOND
     1    1    2 1
     2    1   43 1
     3    1   44 1
     4    1   45 1
     5    2    3 2
     6    2    4 1
     7    4    5 1
     8    4   10 1
     9    4    6 1
    10    6    7 1
    11    6   46 1
    12    6   47 1
    13    7    8 1
    14    7   48 1
    15    7   49 1
    16    8    9 1
    17    8   15 1
    18    8   10 1
    19   10   11 1
    20   10   42 1
    21   11   12 1
    22   11   50 1
    23   11   51 1
    24   12   13 1
    25   12   52 1
    26   12   53 1
    27   13   14 1
    28   13   40 1
    29   13   15 1
    30   15   16 1
    31   15   17 1
    32   17   18 1
    33   17   54 1
    34   17   55 1
    35   18   19 1
    36   18   56 1
    37   18   57 1
    38   19   40 1
    39   19   20 2
    40   20   21 1
    41   20   58 1
    42   21   22 2
    43   21   38 1
    44   22   23 1
    45   23   24 1
    46   24   25 1
    47   24   59 1
    48   24   60 1
    49   25   26 2
    50   25   27 am
    51   27   28 1
    52   27   61 1
    53   28   29 1
    54   28   62 1
    55   28   63 1
    56   29   30 1
    57   29   31 1
    58   29   32 1
    59   30   64 1
    60   30   65 1
    61   30   66 1
    62   31   67 1
    63   31   68 1
    64   31   69 1
    65   32   33 1
    66   32   34 1
    67   32   37 1
    68   34   35 2
    69   34   36 1
    70   37   70 1
    71   38   39 1
    72   38   71 1
    73   38   72 1
    74   39   40 1
    75   39   73 1
    76   39   74 1
    77   40   41 1
    78   41   75 1
    79   41   76 1
    80   41   77 1
    81   42   78 1
    82   42   79 1
    83   42   80 1
@<TRIPOS>MOLECULE
ZINC43736727
   75    79     0     0     0
SMALL
USER_CHARGES

@<TRIPOS>ATOM
      1 C1         -0.0187    1.5296    0.0105 C.3       1 <0>        -0.1475
      2 C2          0.0021   -0.0041    0.0020 C.3       1 <0>        -0.0104
      3 C3          0.7213   -0.4038   -1.2766 C.3       1 <0>        -0.1073
      4 C4          2.2142   -0.0841   -1.2136 C.3       1 <0>        -0.0614
      5 C5          2.7994   -0.7887   -0.0083 C.2       1 <0>         0.1645
      6 N1          3.9633   -1.3637   -0.0674 N.2       1 <0>        -0.3427
      7 O1          4.4893   -2.0164    1.0738 O.3       1 <0>        -0.2062
      8 C6          5.7753   -2.6038    0.8663 C.3       1 <0>         0.0617
      9 C7          6.2358   -3.2672    2.1386 C.2       1 <0>         0.5195
     10 O2          5.5320   -3.2396    3.1260 O.2       1 <0>        -0.5298
     11 N2          7.4298   -3.8911    2.1794 N.am      1 <0>        -0.6908
     12 C8          7.8775   -4.5360    3.4163 C.3       1 <0>         0.1107
     13 H1          7.5329   -3.9570    4.2731 H         1 <0>         0.0930
     14 C9          9.3828   -4.6060    3.4299 C.ar      1 <0>        -0.0503
     15 C10        10.0713   -4.9055    2.2693 C.ar      1 <0>        -0.1181
     16 C11        11.4521   -4.9697    2.2818 C.ar      1 <0>        -0.1200
     17 C12        12.1444   -4.7340    3.4548 C.ar      1 <0>        -0.1355
     18 C13        11.4559   -4.4335    4.6153 C.ar      1 <0>        -0.1198
     19 C14        10.0753   -4.3651    4.6018 C.ar      1 <0>        -0.1038
     20 C15         7.3091   -5.9297    3.4903 C.2       1 <0>         0.4997
     21 O3          6.7511   -6.4129    2.5199 O.co2     1 <0>        -0.6798
     22 O4          7.4072   -6.5741    4.5207 O.co2     1 <0>        -0.6872
     23 C16         2.0078   -0.8000    1.2320 C.2       1 <0>        -0.1674
     24 C17         0.7350   -0.4158    1.2323 C.2       1 <0>        -0.0531
     25 C18         0.0112   -0.3809    2.5636 C.3       1 <0>        -0.0879
     26 C19        -1.3007   -1.1329    2.4184 C.3       1 <0>        -0.1111
     27 C20        -2.1612   -0.5896    1.2884 C.3       1 <0>        -0.0575
     28 H2         -2.5555    0.3828    1.6035 H         1 <0>         0.0685
     29 C21        -1.4447   -0.4239   -0.0300 C.3       1 <0>        -0.0661
     30 H3         -1.9386    0.4361   -0.5131 H         1 <0>         0.0632
     31 C22        -1.7180   -1.5902   -0.9720 C.3       1 <0>        -0.1175
     32 C23        -3.1930   -1.5955   -1.4062 C.3       1 <0>        -0.1029
     33 C24        -4.0696   -1.2459   -0.2273 C.3       1 <0>        -0.0335
     34 C25        -3.3248   -1.5555    1.0886 C.3       1 <0>        -0.0769
     35 H4         -2.9524   -2.5890    1.0811 H         1 <0>         0.0872
     36 C26        -4.4425   -1.4197    2.1362 C.3       1 <0>        -0.1166
     37 C27        -5.6906   -2.0022    1.4242 C.3       1 <0>        -0.1428
     38 C28        -5.3311   -2.1142   -0.0777 C.3       1 <0>         0.2408
     39 C29        -6.4171   -1.5774   -0.9080 C.1       1 <0>        -0.2011
     40 C30        -7.2852   -1.1482   -1.5717 C.1       1 <0>        -0.1898
     41 O5         -5.0507   -3.4689   -0.4198 O.3       1 <0>        -0.5369
     42 C31        -4.5081    0.2186   -0.2962 C.3       1 <0>        -0.1432
     43 H5          1.0039    1.9068    0.0027 H         1 <0>         0.0578
     44 H6         -0.5459    1.8906   -0.8726 H         1 <0>         0.0589
     45 H7         -0.5289    1.8811    0.9072 H         1 <0>         0.0566
     46 H8          0.6092   -1.4797   -1.4238 H         1 <0>         0.0748
     47 H9          0.2748    0.1238   -2.1176 H         1 <0>         0.0806
     48 H10         2.7026   -0.4499   -2.1226 H         1 <0>         0.0873
     49 H11         2.3738    0.9901   -1.1340 H         1 <0>         0.0917
     50 H12         5.7112   -3.3471    0.0716 H         1 <0>         0.0859
     51 H13         6.4872   -1.8288    0.5823 H         1 <0>         0.0804
     52 H14         7.9927   -3.9132    1.3897 H         1 <0>         0.3927
     53 H15         9.5304   -5.0897    1.3528 H         1 <0>         0.1198
     54 H16        11.9900   -5.2045    1.3752 H         1 <0>         0.1179
     55 H17        13.2231   -4.7848    3.4648 H         1 <0>         0.1158
     56 H18        11.9968   -4.2496    5.5318 H         1 <0>         0.1185
     57 H19         9.5376   -4.1267    5.5076 H         1 <0>         0.1225
     58 H20         2.4658   -1.1246    2.1573 H         1 <0>         0.1305
     59 H21         0.6281   -0.8621    3.3263 H         1 <0>         0.0761
     60 H22        -0.1806    0.6516    2.8563 H         1 <0>         0.0758
     61 H23        -1.0911   -2.1875    2.2259 H         1 <0>         0.0642
     62 H24        -1.8610   -1.0577    3.3534 H         1 <0>         0.0643
     63 H25        -1.0988   -1.4997   -1.8672 H         1 <0>         0.0712
     64 H26        -1.4800   -2.5305   -0.4723 H         1 <0>         0.0643
     65 H27        -3.3361   -0.8593   -2.2047 H         1 <0>         0.0572
     66 H28        -3.4506   -2.5830   -1.7956 H         1 <0>         0.0770
     67 H29        -4.2035   -2.0089    3.0244 H         1 <0>         0.0695
     68 H30        -4.6002   -0.3781    2.4103 H         1 <0>         0.0699
     69 H31        -5.9247   -2.9879    1.8256 H         1 <0>         0.0763
     70 H32        -6.5414   -1.3333    1.5537 H         1 <0>         0.0713
     71 H33        -8.0616   -0.7644   -2.1653 H         1 <0>         0.2170
     72 H34        -5.8123   -4.0597   -0.3428 H         1 <0>         0.3785
     73 H35        -5.0588    0.3898   -1.2212 H         1 <0>         0.0571
     74 H36        -5.1489    0.4465    0.5556 H         1 <0>         0.0571
     75 H37        -3.6291    0.8627   -0.2722 H         1 <0>         0.0674
@<TRIPOS>BOND
     1    1    2 1
     2    1   43 1
     3    1   44 1
     4    1   45 1
     5    2   24 1
     6    2   29 1
     7    2    3 1
     8    3    4 1
     9    3   46 1
    10    3   47 1
    11    4    5 1
    12    4   48 1
    13    4   49 1
    14    5    6 2
    15    5   23 1
    16    6    7 1
    17    7    8 1
    18    8    9 1
    19    8   50 1
    20    8   51 1
    21    9   10 2
    22    9   11 am
    23   11   12 1
    24   11   52 1
    25   12   13 1
    26   12   14 1
    27   12   20 1
    28   14   19 ar
    29   14   15 ar
    30   15   16 ar
    31   15   53 1
    32   16   17 ar
    33   16   54 1
    34   17   18 ar
    35   17   55 1
    36   18   19 ar
    37   18   56 1
    38   19   57 1
    39   20   21 2
    40   20   22 1
    41   23   24 2
    42   23   58 1
    43   24   25 1
    44   25   26 1
    45   25   59 1
    46   25   60 1
    47   26   27 1
    48   26   61 1
    49   26   62 1
    50   27   28 1
    51   27   34 1
    52   27   29 1
    53   29   30 1
    54   29   31 1
    55   31   32 1
    56   31   63 1
    57   31   64 1
    58   32   33 1
    59   32   65 1
    60   32   66 1
    61   33   38 1
    62   33   34 1
    63   33   42 1
    64   34   35 1
    65   34   36 1
    66   36   37 1
    67   36   67 1
    68   36   68 1
    69   37   38 1
    70   37   69 1
    71   37   70 1
    72   38   39 1
    73   38   41 1
    74   39   40 3
    75   40   71 1
    76   41   72 1
    77   42   73 1
    78   42   74 1
    79   42   75 1
@<TRIPOS>MOLECULE
ZINC22505969
   73    75     0     0     0
SMALL
USER_CHARGES

@<TRIPOS>ATOM
      1 C1         -2.2057   -2.6233   -0.6611 C.3       1 <0>        -0.1529
      2 C2         -0.9660   -1.8111   -0.2811 C.3       1 <0>         0.0614
      3 O1         -0.3342   -2.4087    0.8528 O.3       1 <0>        -0.3485
      4 C3          0.7805   -1.8111    1.3176 C.2       1 <0>         0.5146
      5 O2          1.2044   -0.8100    0.7751 O.2       1 <0>        -0.5127
      6 C4          1.4858   -2.3721    2.4848 C.ar      1 <0>        -0.1565
      7 C5          1.0027   -3.5273    3.1068 C.ar      1 <0>        -0.0361
      8 C6          1.6639   -4.0484    4.1957 C.ar      1 <0>        -0.1379
      9 C7          2.8116   -3.4267    4.6780 C.ar      1 <0>         0.1977
     10 C8          3.2950   -2.2765    4.0617 C.ar      1 <0>        -0.1647
     11 C9          2.6425   -1.7534    2.9685 C.ar      1 <0>        -0.0311
     12 N1          3.4785   -3.9570    5.7814 N.am      1 <0>        -0.6786
     13 C10         3.5043   -5.2904    5.9763 C.2       1 <0>         0.5169
     14 O3          3.0310   -6.0342    5.1435 O.2       1 <0>        -0.4958
     15 C11         4.1212   -5.8570    7.2291 C.3       1 <0>        -0.1027
     16 C12         4.0209   -7.3834    7.2016 C.3       1 <0>        -0.1044
     17 H1          4.4556   -7.7912    6.2890 H         1 <0>         0.1249
     18 C13         4.6489   -8.0050    8.4433 C.2       1 <0>         0.5180
     19 O4          5.8294   -7.8820    8.7059 O.2       1 <0>        -0.5552
     20 N2          3.8308   -8.6780    9.2053 N.2       1 <0>        -0.7098
     21 C14         2.5369   -8.8389    8.9601 C.2       1 <0>         0.4606
     22 S1          2.2820   -7.9478    7.4294 S.3       1 <0>        -0.2241
     23 N3          1.6167   -9.5236    9.7007 N.2       1 <0>        -0.4451
     24 N4          2.0069  -10.1655   10.8833 N.2       1 <0>        -0.3116
     25 C15         1.1441  -10.8075   11.5777 C.2       1 <0>         0.0995
     26 C16         1.5625  -11.4928   12.8530 C.3       1 <0>        -0.0536
     27 C17         2.3014  -10.4964   13.7486 C.3       1 <0>        -0.1123
     28 C18         1.5561  -10.3547   15.0772 C.3       1 <0>        -0.1197
     29 C19         1.3197   -8.8725   15.3739 C.3       1 <0>        -0.1239
     30 C20        -0.1640   -8.6414   15.6673 C.3       1 <0>        -0.1192
     31 C21        -0.7001   -7.5411   14.7492 C.3       1 <0>        -0.1238
     32 C22        -1.9515   -8.0442   14.0270 C.3       1 <0>        -0.1190
     33 C23        -1.7826   -7.8504   12.5187 C.3       1 <0>        -0.1220
     34 C24        -1.9971   -9.1869   11.8056 C.3       1 <0>        -0.1217
     35 C25        -0.8162   -9.4624   10.8726 C.3       1 <0>        -0.0938
     36 C26        -0.2912  -10.8728   11.1231 C.3       1 <0>        -0.0651
     37 H2         -0.8941  -11.3563   11.8918 H         1 <0>         0.0595
     38 C27        -0.3789  -11.6776    9.8249 C.3       1 <0>        -0.1389
     39 H3         -2.9020   -2.6372    0.1774 H         1 <0>         0.0674
     40 H4         -2.6877   -2.1674   -1.5260 H         1 <0>         0.0788
     41 H5         -1.9108   -3.6437   -0.9054 H         1 <0>         0.0677
     42 H6         -0.2697   -1.7972   -1.1197 H         1 <0>         0.0672
     43 H7         -1.2610   -0.7906   -0.0368 H         1 <0>         0.0672
     44 H8          0.1116   -4.0099    2.7335 H         1 <0>         0.1410
     45 H9          1.2913   -4.9407    4.6767 H         1 <0>         0.1476
     46 H10         4.1857   -1.7962    4.4391 H         1 <0>         0.1364
     47 H11         3.0210   -0.8634    2.4877 H         1 <0>         0.1398
     48 H12         3.9239   -3.3665    6.4089 H         1 <0>         0.4149
     49 H13         5.1693   -5.5626    7.2832 H         1 <0>         0.1137
     50 H14         3.5907   -5.4736    8.1008 H         1 <0>         0.1057
     51 H15         0.6791  -11.8631   13.3732 H         1 <0>         0.0696
     52 H16         2.2221  -12.3279   12.6172 H         1 <0>         0.0666
     53 H17         3.3128  -10.8571   13.9361 H         1 <0>         0.0564
     54 H18         2.3475   -9.5269   13.2527 H         1 <0>         0.0755
     55 H19         0.5975  -10.8697   15.0128 H         1 <0>         0.0647
     56 H20         2.1519  -10.7948   15.8769 H         1 <0>         0.0529
     57 H21         1.9117   -8.5764   16.2399 H         1 <0>         0.0527
     58 H22         1.6163   -8.2773   14.5102 H         1 <0>         0.0690
     59 H23        -0.7173   -9.5637   15.4905 H         1 <0>         0.0663
     60 H24        -0.2858   -8.3383   16.7072 H         1 <0>         0.0519
     61 H25        -0.9519   -6.6627   15.3434 H         1 <0>         0.0523
     62 H26         0.0615   -7.2771   14.0154 H         1 <0>         0.0686
     63 H27        -2.0950   -9.1028   14.2434 H         1 <0>         0.0658
     64 H28        -2.8199   -7.4821   14.3705 H         1 <0>         0.0514
     65 H29        -2.5146   -7.1262   12.1612 H         1 <0>         0.0513
     66 H30        -0.7774   -7.4843   12.3098 H         1 <0>         0.0672
     67 H31        -2.0705   -9.9852   12.5442 H         1 <0>         0.0613
     68 H32        -2.9177   -9.1445   11.2236 H         1 <0>         0.0497
     69 H33        -1.1428   -9.3723    9.8366 H         1 <0>         0.0583
     70 H34        -0.0230   -8.7407   11.0676 H         1 <0>         0.0728
     71 H35        -0.0061  -12.6873    9.9974 H         1 <0>         0.0383
     72 H36        -1.4171  -11.7248    9.4961 H         1 <0>         0.0427
     73 H37         0.2240  -11.1941    9.0562 H         1 <0>         0.0748
@<TRIPOS>BOND
     1    1    2 1
     2    1   39 1
     3    1   40 1
     4    1   41 1
     5    2    3 1
     6    2   42 1
     7    2   43 1
     8    3    4 1
     9    4    5 2
    10    4    6 1
    11    6   11 ar
    12    6    7 ar
    13    7    8 ar
    14    7   44 1
    15    8    9 ar
    16    8   45 1
    17    9   10 ar
    18    9   12 1
    19   10   11 ar
    20   10   46 1
    21   11   47 1
    22   12   13 am
    23   12   48 1
    24   13   14 2
    25   13   15 1
    26   15   16 1
    27   15   49 1
    28   15   50 1
    29   16   17 1
    30   16   22 1
    31   16   18 1
    32   18   19 2
    33   18   20 1
    34   20   21 2
    35   21   22 1
    36   21   23 1
    37   23   24 1
    38   24   25 2
    39   25   36 1
    40   25   26 1
    41   26   27 1
    42   26   51 1
    43   26   52 1
    44   27   28 1
    45   27   53 1
    46   27   54 1
    47   28   29 1
    48   28   55 1
    49   28   56 1
    50   29   30 1
    51   29   57 1
    52   29   58 1
    53   30   31 1
    54   30   59 1
    55   30   60 1
    56   31   32 1
    57   31   61 1
    58   31   62 1
    59   32   33 1
    60   32   63 1
    61   32   64 1
    62   33   34 1
    63   33   65 1
    64   33   66 1
    65   34   35 1
    66   34   67 1
    67   34   68 1
    68   35   36 1
    69   35   69 1
    70   35   70 1
    71   36   37 1
    72   36   38 1
    73   38   71 1
    74   38   72 1
    75   38   73 1
@<TRIPOS>MOLECULE
ZINC00619816
   40    42     0     0     0
SMALL
USER_CHARGES
4-amino-2-(o-tolyl)-9-propyl-5-oxa-7,8-diazabicyclo[4.3.0]nona-3,8,10-triene-3-carbonitrile
@<TRIPOS>ATOM
      1 C1          2.9558    6.2201   -1.4429 C.3       1 <0>        -0.1534
      2 C2          2.0005    5.0250   -1.4378 C.3       1 <0>        -0.1175
      3 C3          1.6965    4.6213    0.0063 C.3       1 <0>        -0.0480
      4 C4          0.7555    3.4442    0.0113 C.2       1 <0>         0.1252
      5 C5          1.1242    2.1057    0.0026 C.2       1 <0>        -0.2584
      6 C6         -0.0163    1.3520    0.0095 C.2       1 <0>         0.2727
      7 N1         -1.0604    2.1961    0.0184 N.pl3     1 <0>        -0.4497
      8 H1         -2.0265    1.9378    0.0207 H         1 <0>         0.4531
      9 N2         -0.5550    3.5056    0.0239 N.2       1 <0>        -0.2612
     10 O1          0.0021   -0.0041    0.0020 O.3       1 <0>        -0.2316
     11 C7          1.1706   -0.6111   -0.2889 C.2       1 <0>         0.4376
     12 C8          2.3628    0.0246   -0.3143 C.2       1 <0>        -0.2561
     13 C9          2.5021    1.4955   -0.0108 C.3       1 <0>         0.1154
     14 H2          3.1094    1.9738   -0.7793 H         1 <0>         0.1015
     15 C10         3.1518    1.6773    1.3368 C.ar      1 <0>        -0.0724
     16 C11         2.5499    1.1618    2.4696 C.ar      1 <0>        -0.0963
     17 C12         3.1457    1.3286    3.7055 C.ar      1 <0>        -0.1254
     18 C13         4.3442    2.0102    3.8088 C.ar      1 <0>        -0.1167
     19 C14         4.9462    2.5252    2.6762 C.ar      1 <0>        -0.1187
     20 C15         4.3523    2.3546    1.4394 C.ar      1 <0>        -0.0771
     21 C16         5.0116    2.9111    0.2038 C.3       1 <0>        -0.1235
     22 C17         3.5377   -0.7261   -0.6411 C.1       1 <0>         0.2701
     23 N3          4.4696   -1.3217   -0.9003 N.1       1 <0>        -0.4373
     24 N4          1.1477   -1.9534   -0.5755 N.pl3     1 <0>        -0.8318
     25 H3          2.4927    7.0577   -0.9213 H         1 <0>         0.0565
     26 H4          3.8829    5.9462   -0.9393 H         1 <0>         0.0568
     27 H5          3.1724    6.5077   -2.4717 H         1 <0>         0.0575
     28 H6          2.4636    4.1874   -1.9594 H         1 <0>         0.0662
     29 H7          1.0734    5.2988   -1.9414 H         1 <0>         0.0660
     30 H8          1.2334    5.4588    0.5279 H         1 <0>         0.0837
     31 H9          2.6236    4.3474    0.5099 H         1 <0>         0.0905
     32 H10         1.6139    0.6291    2.3889 H         1 <0>         0.1112
     33 H11         2.6753    0.9262    4.5905 H         1 <0>         0.1186
     34 H12         4.8098    2.1405    4.7745 H         1 <0>         0.1201
     35 H13         5.8822    3.0579    2.7570 H         1 <0>         0.1216
     36 H14         4.6612    3.9289    0.0322 H         1 <0>         0.0754
     37 H15         6.0930    2.9172    0.3404 H         1 <0>         0.0676
     38 H16         4.7573    2.2897   -0.6549 H         1 <0>         0.0687
     39 H17         0.3071   -2.4374   -0.5650 H         1 <0>         0.4112
     40 H18         1.9721   -2.4180   -0.7886 H         1 <0>         0.4277
@<TRIPOS>BOND
     1    1    2 1
     2    1   25 1
     3    1   26 1
     4    1   27 1
     5    2    3 1
     6    2   28 1
     7    2   29 1
     8    3    4 1
     9    3   30 1
    10    3   31 1
    11    4    9 2
    12    4    5 1
    13    5   13 1
    14    5    6 2
    15    6    7 1
    16    6   10 1
    17    7    8 1
    18    7    9 1
    19   10   11 1
    20   11   12 2
    21   11   24 1
    22   12   13 1
    23   12   22 1
    24   13   14 1
    25   13   15 1
    26   15   20 ar
    27   15   16 ar
    28   16   17 ar
    29   16   32 1
    30   17   18 ar
    31   17   33 1
    32   18   19 ar
    33   18   34 1
    34   19   20 ar
    35   19   35 1
    36   20   21 1
    37   21   36 1
    38   21   37 1
    39   21   38 1
    40   22   23 3
    41   24   39 1
    42   24   40 1
@<TRIPOS>MOLECULE
ZINC36720933
   39    40     0     0     0
SMALL
USER_CHARGES

@<TRIPOS>ATOM
      1 C1         -0.0184    1.5028    0.0103 C.3       1 <0>        -0.1203
      2 C2          0.0021   -0.0041    0.0020 C.ar      1 <0>        -0.1031
      3 C3          0.0058   -0.6929   -1.2042 C.ar      1 <0>         0.2123
      4 C4          0.0246   -2.0818   -1.2075 C.ar      1 <0>        -0.0938
      5 C5          0.0396   -2.7741   -0.0123 C.ar      1 <0>        -0.6229
      6 C6          0.0354   -2.0865    1.1870 C.ar      1 <0>        -0.0671
      7 C7          0.0229   -0.7023    1.1944 C.ar      1 <0>        -0.0100
      8 Cl1         0.0261    0.1570    2.7028 Cl        1 <0>        -0.0532
      9 S1          0.0634   -4.5360   -0.0163 S.o2      1 <0>         2.6918
     10 O1         -0.4760   -4.9523    1.2306 O.2       1 <0>        -0.9483
     11 O2         -0.4877   -4.9467   -1.2600 O.2       1 <0>        -0.9513
     12 N1          1.6518   -5.0041   -0.0249 N.pl3     1 <0>        -0.9956
     13 C8          2.3657   -5.2070   -1.2929 C.3       1 <0>         0.1190
     14 C9          2.9873   -6.6071   -1.2903 C.3       1 <0>        -0.1269
     15 C10         3.8606   -6.7708   -0.0442 C.3       1 <0>        -0.0871
     16 C11         2.9958   -6.6239    1.2098 C.3       1 <0>        -0.1228
     17 C12         2.3758   -5.2185    1.2355 C.3       1 <0>         0.1151
     18 C13         4.5107   -8.1557   -0.0557 C.3       1 <0>         0.0787
     19 O3          5.4158   -8.2662    1.0446 O.3       1 <0>        -0.5734
     20 N2         -0.0099    0.0096   -2.4113 N.pl3     1 <0>        -0.8698
     21 H1          1.0042    1.8801    0.0026 H         1 <0>         0.0799
     22 H2         -0.5455    1.8639   -0.8728 H         1 <0>         0.0695
     23 H3         -0.5286    1.8543    0.9071 H         1 <0>         0.0812
     24 H4          0.0271   -2.6200   -2.1439 H         1 <0>         0.1438
     25 H5          0.0464   -2.6304    2.1200 H         1 <0>         0.1474
     26 H6          1.6660   -5.1194   -2.1242 H         1 <0>         0.0959
     27 H7          3.1516   -4.4584   -1.3937 H         1 <0>         0.0727
     28 H8          2.1959   -7.3565   -1.2808 H         1 <0>         0.0729
     29 H9          3.5995   -6.7350   -2.1830 H         1 <0>         0.0799
     30 H10         4.6368   -6.0055   -0.0417 H         1 <0>         0.0812
     31 H11         2.2043   -7.3731    1.1957 H         1 <0>         0.0684
     32 H12         3.6141   -6.7637    2.0966 H         1 <0>         0.0855
     33 H13         3.1626   -4.4709    1.3368 H         1 <0>         0.0730
     34 H14         1.6829   -5.1385    2.0731 H         1 <0>         0.0962
     35 H15         3.7386   -8.9202    0.0307 H         1 <0>         0.0466
     36 H16         5.0556   -8.2936   -0.9896 H         1 <0>         0.0464
     37 H17         5.8652   -9.1207    1.0999 H         1 <0>         0.3809
     38 H18        -0.0233    0.9795   -2.4079 H         1 <0>         0.4029
     39 H19        -0.0073   -0.4724   -3.2531 H         1 <0>         0.4045
@<TRIPOS>BOND
     1    1    2 1
     2    1   21 1
     3    1   22 1
     4    1   23 1
     5    2    7 ar
     6    2    3 ar
     7    3    4 ar
     8    3   20 1
     9    4    5 ar
    10    4   24 1
    11    5    6 ar
    12    5    9 1
    13    6    7 ar
    14    6   25 1
    15    7    8 1
    16    9   10 2
    17    9   11 2
    18    9   12 1
    19   12   17 1
    20   12   13 1
    21   13   14 1
    22   13   26 1
    23   13   27 1
    24   14   15 1
    25   14   28 1
    26   14   29 1
    27   15   16 1
    28   15   18 1
    29   15   30 1
    30   16   17 1
    31   16   31 1
    32   16   32 1
    33   17   33 1
    34   17   34 1
    35   18   19 1
    36   18   35 1
    37   18   36 1
    38   19   37 1
    39   20   38 1
    40   20   39 1
@<TRIPOS>MOLECULE
ZINC44592611
   41    43     0     0     0
SMALL
USER_CHARGES

@<TRIPOS>ATOM
      1 C1          0.4173    0.8878    1.0152 C.2       1 <0>        -0.1340
      2 C2          1.6222    1.4991    1.0814 C.2       1 <0>        -0.1603
      3 S1          2.7403    0.1449    0.7535 S.3       1 <0>         0.0318
      4 C3          1.5217   -1.1278    0.5511 C.2       1 <0>        -0.1949
      5 C4          0.3421   -0.4772    0.7427 C.2       1 <0>        -0.0727
      6 C5         -0.9772   -1.2427    0.6602 C.3       1 <0>         0.1252
      7 H1         -1.6834   -0.6951    0.0361 H         1 <0>         0.1135
      8 N1         -0.6983   -2.5552    0.0619 N.am      1 <0>        -0.5621
      9 C6          0.4406   -3.3404    0.5607 C.3       1 <0>         0.0732
     10 C7          1.7329   -2.5737    0.2396 C.3       1 <0>        -0.0529
     11 C8         -1.4756   -3.0330   -0.9300 C.2       1 <0>         0.4996
     12 O1         -2.4716   -2.4276   -1.2651 O.2       1 <0>        -0.4861
     13 C9         -1.1071   -4.3197   -1.6228 C.3       1 <0>         0.0414
     14 C10        -2.0372   -4.5402   -2.8174 C.3       1 <0>        -0.1109
     15 C11        -3.4848   -4.6206   -2.3287 C.3       1 <0>        -0.1366
     16 C12        -3.6282   -5.7867   -1.3487 C.3       1 <0>        -0.1247
     17 C13        -2.6981   -5.5662   -0.1540 C.3       1 <0>        -0.1216
     18 C14        -1.2505   -5.4858   -0.6427 C.3       1 <0>        -0.1417
     19 N2          0.2828   -4.2425   -2.0920 N.4       1 <0>        -0.6421
     20 C15        -1.5505   -1.4221    2.0424 C.2       1 <0>         0.5008
     21 O2         -1.9917   -0.4608    2.6488 O.co2     1 <0>        -0.6648
     22 O3         -1.5730   -2.5285    2.5542 O.co2     1 <0>        -0.6765
     23 H2         -0.4863    1.4565    1.1779 H         1 <0>         0.1429
     24 H3          1.8492    2.5360    1.2803 H         1 <0>         0.1900
     25 H4          0.3508   -3.4738    1.6388 H         1 <0>         0.1322
     26 H5          0.4591   -4.3134    0.0699 H         1 <0>         0.0780
     27 H6          1.9733   -2.6888   -0.8173 H         1 <0>         0.0622
     28 H7          2.5496   -2.9632    0.8473 H         1 <0>         0.1073
     29 H8         -1.9350   -3.7094   -3.5156 H         1 <0>         0.0903
     30 H9         -1.7706   -5.4707   -3.3185 H         1 <0>         0.0904
     31 H10        -3.7513   -3.6900   -1.8277 H         1 <0>         0.1098
     32 H11        -4.1474   -4.7777   -3.1798 H         1 <0>         0.0797
     33 H12        -4.6595   -5.8440   -1.0005 H         1 <0>         0.0778
     34 H13        -3.3617   -6.7173   -1.8498 H         1 <0>         0.0646
     35 H14        -2.9646   -4.6356    0.3470 H         1 <0>         0.0847
     36 H15        -2.8003   -6.3969    0.5442 H         1 <0>         0.0881
     37 H16        -0.9840   -6.4164   -1.1438 H         1 <0>         0.0981
     38 H17        -0.5879   -5.3287    0.2084 H         1 <0>         0.1019
     39 H18         0.8817   -3.9718   -1.3264 H         1 <0>         0.4290
     40 H19         0.5704   -5.1443   -2.4414 H         1 <0>         0.4342
     41 H20         0.3510   -3.5583   -2.8305 H         1 <0>         0.4353
@<TRIPOS>BOND
     1    1    5 1
     2    1    2 2
     3    1   23 1
     4    2    3 1
     5    2   24 1
     6    3    4 1
     7    4   10 1
     8    4    5 2
     9    5    6 1
    10    6    7 1
    11    6    8 1
    12    6   20 1
    13    8    9 1
    14    8   11 am
    15    9   10 1
    16    9   25 1
    17    9   26 1
    18   10   27 1
    19   10   28 1
    20   11   12 2
    21   11   13 1
    22   13   18 1
    23   13   14 1
    24   13   19 1
    25   14   15 1
    26   14   29 1
    27   14   30 1
    28   15   16 1
    29   15   31 1
    30   15   32 1
    31   16   17 1
    32   16   33 1
    33   16   34 1
    34   17   18 1
    35   17   35 1
    36   17   36 1
    37   18   37 1
    38   18   38 1
    39   19   39 1
    40   19   40 1
    41   19   41 1
    42   20   21 2
    43   20   22 1
@<TRIPOS>MOLECULE
ZINC39575061
   38    41     0     0     0
SMALL
USER_CHARGES

@<TRIPOS>ATOM
      1 C1         -0.0184    1.5028    0.0103 C.3       1 <0>        -0.1038
      2 C2          0.0021   -0.0041    0.0020 C.2       1 <0>        -0.1689
      3 C3          0.0056   -0.6587   -1.1428 C.2       1 <0>        -0.0671
      4 S1          0.0494   -2.3898   -0.7152 S.3       1 <0>        -0.2742
      5 C4          0.4893   -2.2213    1.0660 C.3       1 <0>         0.1634
      6 C5          0.0246   -0.7601    1.2914 C.3       1 <0>         0.0207
      7 C6         -1.3607   -0.7709    1.8847 C.2       1 <0>         0.2985
      8 N1         -2.5162   -0.8078    1.1666 N.pl3     1 <0>        -0.5818
      9 H1         -2.5921   -0.8314    0.1999 H         1 <0>         0.4247
     10 C7         -3.5618   -0.8061    2.0709 C.ar      1 <0>         0.0620
     11 C8         -4.9438   -0.8326    1.9465 C.ar      1 <0>        -0.1147
     12 C9         -5.7403   -0.8225    3.0773 C.ar      1 <0>         0.0811
     13 C10        -5.1593   -0.7869    4.3456 C.ar      1 <0>         0.0517
     14 C11        -3.7856   -0.7580    4.4812 C.ar      1 <0>        -0.0628
     15 C12        -2.9720   -0.7675    3.3447 C.ar      1 <0>         0.0556
     16 N2         -1.6263   -0.7521    3.1580 N.2       1 <0>        -0.4729
     17 O1         -5.9354   -0.7850    5.4653 O.3       1 <0>        -0.3041
     18 C13        -7.3136   -0.4388    5.2929 C.3       1 <0>         0.0208
     19 C14        -7.8577   -1.2160    4.0867 C.3       1 <0>         0.0206
     20 O2         -7.0946   -0.8459    2.9335 O.3       1 <0>        -0.3046
     21 N3          1.9361   -2.3599    1.2791 N.3       1 <0>        -0.7978
     22 C15        -0.0222   -0.0659   -2.5280 C.3       1 <0>        -0.0875
     23 H2          1.0042    1.8801    0.0026 H         1 <0>         0.0769
     24 H3         -0.5455    1.8639   -0.8728 H         1 <0>         0.0715
     25 H4         -0.5286    1.8543    0.9071 H         1 <0>         0.0669
     26 H5         -0.0718   -2.9220    1.6843 H         1 <0>         0.1399
     27 H6          0.7065   -0.2676    1.9845 H         1 <0>         0.1383
     28 H7         -5.3974   -0.8606    0.9667 H         1 <0>         0.1371
     29 H8         -3.3402   -0.7276    5.4645 H         1 <0>         0.1451
     30 H9         -7.8750   -0.7084    6.1874 H         1 <0>         0.1250
     31 H10        -7.4035    0.6322    5.1108 H         1 <0>         0.0789
     32 H11        -7.7589   -2.2868    4.2645 H         1 <0>         0.0801
     33 H12        -8.9065   -0.9641    3.9298 H         1 <0>         0.1250
     34 H13         2.2586   -3.2711    0.9896 H         1 <0>         0.3617
     35 H14         2.4433   -1.6289    0.8032 H         1 <0>         0.3532
     36 H15         0.9984    0.1008   -2.8724 H         1 <0>         0.0837
     37 H16        -0.5272   -0.7528   -3.2071 H         1 <0>         0.0757
     38 H17        -0.5580    0.8831   -2.5064 H         1 <0>         0.0819
@<TRIPOS>BOND
     1    1    2 1
     2    1   23 1
     3    1   24 1
     4    1   25 1
     5    2    6 1
     6    2    3 2
     7    3    4 1
     8    3   22 1
     9    4    5 1
    10    5    6 1
    11    5   21 1
    12    5   26 1
    13    6    7 1
    14    6   27 1
    15    7   16 2
    16    7    8 1
    17    8    9 1
    18    8   10 1
    19   10   15 ar
    20   10   11 ar
    21   11   12 ar
    22   11   28 1
    23   12   20 1
    24   12   13 ar
    25   13   14 ar
    26   13   17 1
    27   14   15 ar
    28   14   29 1
    29   15   16 1
    30   17   18 1
    31   18   19 1
    32   18   30 1
    33   18   31 1
    34   19   20 1
    35   19   32 1
    36   19   33 1
    37   21   34 1
    38   21   35 1
    39   22   36 1
    40   22   37 1
    41   22   38 1
@<TRIPOS>MOLECULE
ZINC13131382
   39    42     0     0     0
SMALL
USER_CHARGES

@<TRIPOS>ATOM
      1 C1         -0.0167    1.3781    0.0096 C.ar      1 <0>        -0.1102
      2 C2          1.1709    2.0855    0.0021 C.ar      1 <0>        -0.1194
      3 C3          2.3773    1.4107   -0.0130 C.ar      1 <0>        -0.0968
      4 C4          2.3960    0.0285   -0.0201 C.ar      1 <0>        -0.0908
      5 C5          1.2084   -0.6789   -0.0117 C.ar      1 <0>        -0.0892
      6 C6          0.0021   -0.0041    0.0020 C.ar      1 <0>        -0.1201
      7 C7          3.7112   -0.7071   -0.0376 C.3       1 <0>         0.2135
      8 H1          4.5313    0.0109   -0.0426 H         1 <0>         0.0960
      9 C8          3.8172   -1.5998    1.2050 C.3       1 <0>        -0.1411
     10 C9          5.0120   -2.5492    1.0597 C.3       1 <0>         0.2021
     11 H2          5.9227   -1.9704    0.9056 H         1 <0>         0.0894
     12 N1          4.7786   -3.4249   -0.1050 N.pl3     1 <0>        -0.7051
     13 C10         4.2824   -2.8092   -1.2464 C.2       1 <0>         0.5468
     14 N2          3.7874   -1.5466   -1.2329 N.pl3     1 <0>        -0.4067
     15 N3          3.3904   -1.2569   -2.5390 N.2       1 <0>        -0.3594
     16 C11         3.6551   -2.3230   -3.2609 C.2       1 <0>         0.4866
     17 N4          4.1943   -3.2669   -2.4668 N.2       1 <0>        -0.5983
     18 N5          3.4103   -2.4567   -4.6285 N.pl3     1 <0>        -0.8252
     19 C12         5.1486   -3.3849    2.3062 C.ar      1 <0>        -0.1113
     20 C13         4.3426   -4.4936    2.4863 C.ar      1 <0>        -0.0746
     21 C14         4.4673   -5.2610    3.6288 C.ar      1 <0>        -0.1505
     22 C15         5.4000   -4.9191    4.5934 C.ar      1 <0>         0.1082
     23 C16         6.2067   -3.8086    4.4119 C.ar      1 <0>        -0.1505
     24 C17         6.0838   -3.0457    3.2661 C.ar      1 <0>        -0.0712
     25 F1          5.5225   -5.6683    5.7109 F         1 <0>        -0.1358
     26 H3         -0.9591    1.9053    0.0259 H         1 <0>         0.1234
     27 H4          1.1563    3.1654    0.0076 H         1 <0>         0.1251
     28 H5          3.3051    1.9634   -0.0196 H         1 <0>         0.1235
     29 H6          1.2231   -1.7588   -0.0176 H         1 <0>         0.1136
     30 H7         -0.9258   -0.5567    0.0082 H         1 <0>         0.1224
     31 H8          3.9548   -0.9765    2.0886 H         1 <0>         0.1109
     32 H9          2.9022   -2.1823    1.3121 H         1 <0>         0.0892
     33 H10         4.9618   -4.3770   -0.0750 H         1 <0>         0.4257
     34 H11         3.0125   -1.7237   -5.1239 H         1 <0>         0.4132
     35 H12         3.6380   -3.2825   -5.0835 H         1 <0>         0.4129
     36 H13         3.6149   -4.7598    1.7340 H         1 <0>         0.1352
     37 H14         3.8373   -6.1268    3.7695 H         1 <0>         0.1394
     38 H15         6.9344   -3.5408    5.1638 H         1 <0>         0.1407
     39 H16         6.7161   -2.1820    3.1223 H         1 <0>         0.1383
@<TRIPOS>BOND
     1    1    6 ar
     2    1    2 ar
     3    1   26 1
     4    2    3 ar
     5    2   27 1
     6    3    4 ar
     7    3   28 1
     8    4    5 ar
     9    4    7 1
    10    5    6 ar
    11    5   29 1
    12    6   30 1
    13    7    8 1
    14    7   14 1
    15    7    9 1
    16    9   10 1
    17    9   31 1
    18    9   32 1
    19   10   11 1
    20   10   12 1
    21   10   19 1
    22   12   13 1
    23   12   33 1
    24   13   17 2
    25   13   14 1
    26   14   15 1
    27   15   16 2
    28   16   17 1
    29   16   18 1
    30   18   34 1
    31   18   35 1
    32   19   24 ar
    33   19   20 ar
    34   20   21 ar
    35   20   36 1
    36   21   22 ar
    37   21   37 1
    38   22   23 ar
    39   22   25 1
    40   23   24 ar
    41   23   38 1
    42   24   39 1
@<TRIPOS>MOLECULE
ZINC22218654
   38    40     0     0     0
SMALL
USER_CHARGES
1-(6-amino-1,3-benzothiazol-2-yl)-3-cyclohexyl-urea
@<TRIPOS>ATOM
      1 C1         -0.0168    1.3887    0.0097 C.ar      1 <0>        -0.1831
      2 C2          1.1425    2.1189    0.0025 C.ar      1 <0>        -0.0128
      3 C3          2.4024    1.4779   -0.0129 C.ar      1 <0>         0.0371
      4 C4          2.3864    0.0645   -0.0203 C.ar      1 <0>        -0.0900
      5 C5          1.2240   -0.6644   -0.0132 C.ar      1 <0>        -0.1589
      6 C6          0.0021   -0.0041    0.0020 C.ar      1 <0>         0.2475
      7 N1         -1.1949   -0.7289    0.0100 N.pl3     1 <0>        -0.8905
      8 S1          4.1180   -0.3335   -0.0390 S.3       1 <0>        -0.0161
      9 C7          4.7345    1.3440   -0.0358 C.2       1 <0>         0.3758
     10 N2          3.6283    2.0490   -0.0215 N.2       1 <0>        -0.4932
     11 N3          6.0475    1.7872   -0.0460 N.am      1 <0>        -0.6420
     12 C8          6.3127    3.1087   -0.0414 C.2       1 <0>         0.7027
     13 O1          5.4000    3.9117   -0.0284 O.2       1 <0>        -0.5321
     14 N4          7.5896    3.5398   -0.0513 N.am      1 <0>        -0.7475
     15 C9          7.8778    4.9761   -0.0463 C.3       1 <0>         0.1678
     16 C10         7.8412    5.5086   -1.4802 C.3       1 <0>        -0.1300
     17 C11         8.1422    7.0087   -1.4750 C.3       1 <0>        -0.1187
     18 C12         9.5301    7.2483   -0.8773 C.3       1 <0>        -0.1230
     19 C13         9.5667    6.7158    0.5566 C.3       1 <0>        -0.1174
     20 C14         9.2657    5.2157    0.5514 C.3       1 <0>        -0.1243
     21 H1         -0.9658    1.9042    0.0169 H         1 <0>         0.1309
     22 H2          1.0931    3.1977    0.0084 H         1 <0>         0.1330
     23 H3          1.2588   -1.7438   -0.0189 H         1 <0>         0.1288
     24 H4         -1.1720   -1.8286    0.0038 H         1 <0>         0.4205
     25 H5         -2.1587   -0.1989    0.0224 H         1 <0>         0.4220
     26 H6          6.8732    1.0605   -0.0578 H         1 <0>         0.4475
     27 H7          8.4154    2.8132   -0.0631 H         1 <0>         0.4143
     28 H8          7.1032    5.4601    0.5666 H         1 <0>         0.0889
     29 H9          8.5963    4.9852   -2.0851 H         1 <0>         0.0637
     30 H10         6.8434    5.3363   -1.9100 H         1 <0>         0.0677
     31 H11         8.1158    7.3915   -2.5059 H         1 <0>         0.0653
     32 H12         7.3871    7.5321   -0.8701 H         1 <0>         0.0652
     33 H13        10.2852    6.7249   -1.4822 H         1 <0>         0.0629
     34 H14         9.7465    8.3268   -0.8736 H         1 <0>         0.0646
     35 H15        10.5645    6.8881    0.9863 H         1 <0>         0.0683
     36 H16         8.8116    7.2392    1.1615 H         1 <0>         0.0661
     37 H17         9.2920    4.8329    1.5823 H         1 <0>         0.0695
     38 H18        10.0208    4.6923   -0.0535 H         1 <0>         0.0695
@<TRIPOS>BOND
     1    1    6 ar
     2    1    2 ar
     3    1   21 1
     4    2    3 ar
     5    2   22 1
     6    3   10 1
     7    3    4 ar
     8    4    5 ar
     9    4    8 1
    10    5    6 ar
    11    5   23 1
    12    6    7 1
    13    7   24 1
    14    7   25 1
    15    8    9 1
    16    9   10 2
    17    9   11 1
    18   11   12 am
    19   11   26 1
    20   12   13 2
    21   12   14 am
    22   14   15 1
    23   14   27 1
    24   15   20 1
    25   15   16 1
    26   15   28 1
    27   16   17 1
    28   16   29 1
    29   16   30 1
    30   17   18 1
    31   17   31 1
    32   17   32 1
    33   18   19 1
    34   18   33 1
    35   18   34 1
    36   19   20 1
    37   19   35 1
    38   19   36 1
    39   20   37 1
    40   20   38 1
@<TRIPOS>MOLECULE
ZINC40367410
   32    33     0     0     0
SMALL
USER_CHARGES

@<TRIPOS>ATOM
      1 C1         -0.0454    1.4055   -0.3898 C.ar      1 <0>        -0.0753
      2 C2          1.1437    2.0998   -0.4349 C.ar      1 <0>        -0.1238
      3 C3          2.3374    1.4578   -0.1239 C.ar      1 <0>         0.1605
      4 C4          2.3346    0.1139    0.2333 C.ar      1 <0>        -0.1474
      5 C5          1.1485   -0.5854    0.2801 C.ar      1 <0>        -0.0471
      6 C6         -0.0513    0.0566   -0.0311 C.ar      1 <0>        -0.1125
      7 C7         -1.3265   -0.6915    0.0186 C.2       1 <0>         0.4187
      8 N1         -1.4683   -1.6810    0.8518 N.2       1 <0>        -0.4247
      9 O1         -0.4550   -1.9578    1.8014 O.3       1 <0>        -0.4052
     10 N2         -2.3693   -0.3387   -0.8214 N.pl3     1 <0>        -0.8315
     11 N3          3.5408    2.1637   -0.1709 N.am      1 <0>        -0.6689
     12 C8          3.5801    3.4549    0.2136 C.2       1 <0>         0.5610
     13 O2          2.5537    4.0290    0.5212 O.2       1 <0>        -0.5077
     14 C9          4.8709    4.1725    0.2613 C.ar      1 <0>        -0.1241
     15 C10         6.0508    3.5175   -0.0968 C.ar      1 <0>        -0.0793
     16 C11         7.2523    4.1927   -0.0502 C.ar      1 <0>        -0.0969
     17 C12         7.2901    5.5176    0.3508 C.ar      1 <0>        -0.0647
     18 C13         6.1234    6.1728    0.7072 C.ar      1 <0>        -0.0967
     19 C14         4.9149    5.5102    0.6592 C.ar      1 <0>        -0.0490
     20 Br1         8.9421    6.4359    0.4125 Br        1 <0>        -0.0355
     21 H1         -0.9727    1.9056   -0.6274 H         1 <0>         0.1302
     22 H2          1.1488    3.1435   -0.7123 H         1 <0>         0.1429
     23 H3          3.2632   -0.3823    0.4740 H         1 <0>         0.1320
     24 H4          1.1470   -1.6293    0.5569 H         1 <0>         0.1441
     25 H5         -0.6497   -2.7106    2.3762 H         1 <0>         0.3964
     26 H6         -2.2636    0.3989   -1.4424 H         1 <0>         0.4122
     27 H7         -3.2055   -0.8292   -0.7887 H         1 <0>         0.4082
     28 H8          4.3487    1.7250   -0.4802 H         1 <0>         0.4124
     29 H9          6.0225    2.4841   -0.4093 H         1 <0>         0.1361
     30 H10         8.1657    3.6870   -0.3266 H         1 <0>         0.1429
     31 H11         6.1594    7.2061    1.0194 H         1 <0>         0.1441
     32 H12         4.0050    6.0236    0.9327 H         1 <0>         0.1486
@<TRIPOS>BOND
     1    1    6 ar
     2    1    2 ar
     3    1   21 1
     4    2    3 ar
     5    2   22 1
     6    3    4 ar
     7    3   11 1
     8    4    5 ar
     9    4   23 1
    10    5    6 ar
    11    5   24 1
    12    6    7 1
    13    7    8 2
    14    7   10 1
    15    8    9 1
    16    9   25 1
    17   10   26 1
    18   10   27 1
    19   11   12 am
    20   11   28 1
    21   12   13 2
    22   12   14 1
    23   14   19 ar
    24   14   15 ar
    25   15   16 ar
    26   15   29 1
    27   16   17 ar
    28   16   30 1
    29   17   18 ar
    30   17   20 1
    31   18   19 ar
    32   18   31 1
    33   19   32 1
@<TRIPOS>MOLECULE
ZINC48844186
   42    43     0     0     0
SMALL
USER_CHARGES

@<TRIPOS>ATOM
      1 C1         -0.0178    1.4608    0.0101 C.3       1 <0>         0.0861
      2 N1          0.0021   -0.0041    0.0020 N.am      1 <0>        -0.5452
      3 C2          0.0230   -0.7062    1.2031 C.ar      1 <0>         0.1676
      4 C3         -1.1668   -1.0798    1.8142 C.ar      1 <0>        -0.1265
      5 C4         -1.1437   -1.7761    3.0053 C.ar      1 <0>        -0.1196
      6 C5          0.0629   -2.1087    3.6013 C.ar      1 <0>        -0.1274
      7 C6          1.2535   -1.7473    3.0113 C.ar      1 <0>        -0.0815
      8 C7          1.2475   -1.0459    1.8010 C.ar      1 <0>        -0.1278
      9 C8          2.5156   -0.6613    1.1617 C.2       1 <0>         0.5295
     10 O1          3.5801   -0.9593    1.6861 O.co2     1 <0>        -0.6800
     11 O2          2.5056   -0.0435    0.1058 O.co2     1 <0>        -0.6956
     12 C9          0.0001   -0.6716   -1.1688 C.2       1 <0>         0.7301
     13 O3          0.0166   -1.8872   -1.1755 O.2       1 <0>        -0.5756
     14 N2         -0.0202    0.0085   -2.3322 N.am      1 <0>        -0.7628
     15 C10        -0.0224   -0.7171   -3.6049 C.3       1 <0>         0.1490
     16 H1          0.5803   -1.6203   -3.5093 H         1 <0>         0.1121
     17 C11        -1.4579   -1.0985   -3.9721 C.3       1 <0>        -0.1279
     18 C12        -1.4602   -1.8563   -5.3012 C.3       1 <0>        -0.1277
     19 C13        -0.8730   -0.9650   -6.3975 C.3       1 <0>        -0.1169
     20 C14         0.5625   -0.5837   -6.0303 C.3       1 <0>        -0.1370
     21 C15         0.5648    0.1741   -4.7011 C.3       1 <0>         0.0211
     22 H2         -0.0379    1.0773   -4.7968 H         1 <0>         0.1439
     23 N3          1.9431    0.5403   -4.3486 N.4       1 <0>        -0.6355
     24 H3          1.0048    1.8381    0.0023 H         1 <0>         0.0737
     25 H4         -0.5450    1.8219   -0.8730 H         1 <0>         0.0542
     26 H5         -0.5280    1.8123    0.9069 H         1 <0>         0.0703
     27 H6         -2.1113   -0.8248    1.3567 H         1 <0>         0.1144
     28 H7         -2.0720   -2.0635    3.4766 H         1 <0>         0.1202
     29 H8          0.0692   -2.6538    4.5336 H         1 <0>         0.1207
     30 H9          2.1907   -2.0087    3.4802 H         1 <0>         0.1310
     31 H10        -0.0334    0.9784   -2.3269 H         1 <0>         0.3927
     32 H11        -1.8762   -1.7335   -3.1911 H         1 <0>         0.0904
     33 H12        -2.0606   -0.1954   -4.0677 H         1 <0>         0.0727
     34 H13        -0.8574   -2.7595   -5.2056 H         1 <0>         0.0736
     35 H14        -2.4828   -2.1280   -5.5628 H         1 <0>         0.0796
     36 H15        -0.8746   -1.5049   -7.3444 H         1 <0>         0.0849
     37 H16        -1.4757   -0.0619   -6.4931 H         1 <0>         0.0744
     38 H17         1.1652   -1.4868   -5.9346 H         1 <0>         0.0918
     39 H18         0.9808    0.0513   -6.8113 H         1 <0>         0.0920
     40 H19         2.5010   -0.2957   -4.2601 H         1 <0>         0.4380
     41 H20         2.3303    1.1281   -5.0716 H         1 <0>         0.4324
     42 H21         1.9446    1.0401   -3.4721 H         1 <0>         0.4407
@<TRIPOS>BOND
     1    1    2 1
     2    1   24 1
     3    1   25 1
     4    1   26 1
     5    2    3 1
     6    2   12 am
     7    3    8 ar
     8    3    4 ar
     9    4    5 ar
    10    4   27 1
    11    5    6 ar
    12    5   28 1
    13    6    7 ar
    14    6   29 1
    15    7    8 ar
    16    7   30 1
    17    8    9 1
    18    9   10 2
    19    9   11 1
    20   12   13 2
    21   12   14 am
    22   14   15 1
    23   14   31 1
    24   15   16 1
    25   15   21 1
    26   15   17 1
    27   17   18 1
    28   17   32 1
    29   17   33 1
    30   18   19 1
    31   18   34 1
    32   18   35 1
    33   19   20 1
    34   19   36 1
    35   19   37 1
    36   20   21 1
    37   20   38 1
    38   20   39 1
    39   21   22 1
    40   21   23 1
    41   23   40 1
    42   23   41 1
    43   23   42 1
@<TRIPOS>MOLECULE
ZINC51095314
   31    33     0     0     0
SMALL
USER_CHARGES

@<TRIPOS>ATOM
      1 C1         -0.0164    1.3591    0.0095 C.ar      1 <0>        -0.0914
      2 C2          1.1679    2.0910    0.0021 C.ar      1 <0>        -0.1155
      3 C3          2.3805    1.4667   -0.0133 C.ar      1 <0>        -0.0897
      4 C4          2.4380    0.0682   -0.0213 C.ar      1 <0>        -0.1210
      5 C5          1.2320   -0.6775   -0.0133 C.ar      1 <0>         0.0019
      6 C6          0.0021   -0.0041    0.0020 C.ar      1 <0>        -0.1052
      7 C7          1.3140   -2.0824   -0.0212 C.ar      1 <0>        -0.1366
      8 C8          2.5634   -2.6744   -0.0363 C.ar      1 <0>         0.1080
      9 N1          3.6832   -1.9441   -0.0436 N.ar      1 <0>        -0.5343
     10 C9          3.6701   -0.6284   -0.0369 C.ar      1 <0>         0.4482
     11 N2          4.8623    0.0751   -0.0449 N.pl3     1 <0>        -0.5594
     12 N3          6.0517   -0.5966   -0.0599 N.3       1 <0>        -0.5950
     13 C10         2.6633   -4.1497   -0.0442 C.2       1 <0>         0.5732
     14 O1          1.6541   -4.8273   -0.0374 O.2       1 <0>        -0.4613
     15 N4          3.8733   -4.7431   -0.0590 N.am      1 <0>        -0.6053
     16 C11         3.9672   -6.1287   -0.0664 C.2       1 <0>         0.2737
     17 N5          2.9939   -7.0141   -0.0667 N.2       1 <0>        -0.5253
     18 C12         3.2499   -8.3091   -0.0747 C.2       1 <0>         0.0638
     19 C13         4.5541   -8.6795   -0.0826 C.2       1 <0>        -0.2478
     20 S1          5.3534   -7.0829   -0.0846 S.3       1 <0>         0.1109
     21 H1         -0.9631    1.8786    0.0259 H         1 <0>         0.1320
     22 H2          1.1258    3.1701    0.0084 H         1 <0>         0.1304
     23 H3          3.2908    2.0479   -0.0196 H         1 <0>         0.1255
     24 H4         -0.9233   -0.5609    0.0082 H         1 <0>         0.1386
     25 H5          0.4185   -2.6862   -0.0152 H         1 <0>         0.1520
     26 H6          4.8532    1.0451   -0.0400 H         1 <0>         0.4130
     27 H7          6.8297    0.0458   -0.0643 H         1 <0>         0.3587
     28 H8          6.1154   -1.2364    0.7177 H         1 <0>         0.3455
     29 H9          4.6786   -4.2024   -0.0644 H         1 <0>         0.4367
     30 H10         2.4557   -9.0410   -0.0747 H         1 <0>         0.1763
     31 H11         4.9894   -9.6678   -0.0893 H         1 <0>         0.1993
@<TRIPOS>BOND
     1    1    6 ar
     2    1    2 ar
     3    1   21 1
     4    2    3 ar
     5    2   22 1
     6    3    4 ar
     7    3   23 1
     8    4   10 ar
     9    4    5 ar
    10    5    6 ar
    11    5    7 ar
    12    6   24 1
    13    7    8 ar
    14    7   25 1
    15    8    9 ar
    16    8   13 1
    17    9   10 ar
    18   10   11 1
    19   11   12 1
    20   11   26 1
    21   12   27 1
    22   12   28 1
    23   13   14 2
    24   13   15 am
    25   15   16 1
    26   15   29 1
    27   16   20 1
    28   16   17 2
    29   17   18 1
    30   18   19 2
    31   18   30 1
    32   19   20 1
    33   19   31 1
@<TRIPOS>MOLECULE
ZINC61886227
   32    33     0     0     0
SMALL
USER_CHARGES

@<TRIPOS>ATOM
      1 C1          0.4697    1.2084    0.3029 C.2       1 <0>        -0.1128
      2 C2          1.8385    1.5145    0.2838 C.2       1 <0>        -0.1637
      3 C3          2.5075    0.3423    0.1869 C.2       1 <0>        -0.0023
      4 O1          1.6182   -0.6586    0.1462 O.3       1 <0>        -0.1482
      5 C4          0.3695   -0.1511    0.2157 C.2       1 <0>        -0.0593
      6 C5         -0.8759   -0.9235    0.2009 C.2       1 <0>         0.6067
      7 O2         -1.9478   -0.3512    0.2700 O.2       1 <0>        -0.5097
      8 N1         -0.8342   -2.2676    0.1106 N.am      1 <0>        -0.7100
      9 C6         -2.0792   -3.0397    0.0957 C.3       1 <0>         0.1415
     10 H1         -2.8247   -2.5576    0.7280 H         1 <0>         0.1009
     11 C7         -2.6090   -3.1602   -1.3481 C.3       1 <0>        -0.1363
     12 C8         -2.0719   -4.5283   -1.8368 C.3       1 <0>        -0.1246
     13 C9         -2.1953   -5.4152   -0.5730 C.3       1 <0>        -0.1102
     14 C10        -1.8164   -4.4731    0.5897 C.3       1 <0>        -0.0911
     15 H2         -0.7626   -4.5942    0.8406 H         1 <0>         0.1107
     16 C11        -2.6717   -4.7687    1.7947 C.2       1 <0>         0.3833
     17 N2         -2.2089   -5.5042    2.7506 N.2       1 <0>        -0.4282
     18 O3         -0.8628   -5.9423    2.7186 O.3       1 <0>        -0.4122
     19 N3         -3.9468   -4.2549    1.8769 N.pl3     1 <0>        -0.8320
     20 Br1         4.3874    0.1491    0.1194 Br        1 <0>         0.0676
     21 H3         -0.3469    1.9113    0.3770 H         1 <0>         0.1722
     22 H4          2.2762    2.5005    0.3362 H         1 <0>         0.1709
     23 H5          0.0201   -2.7237    0.0554 H         1 <0>         0.4073
     24 H6         -3.6989   -3.1533   -1.3563 H         1 <0>         0.0818
     25 H7         -2.2168   -2.3533   -1.9670 H         1 <0>         0.0772
     26 H8         -2.6899   -4.9195   -2.6451 H         1 <0>         0.0768
     27 H9         -1.0313   -4.4452   -2.1503 H         1 <0>         0.0712
     28 H10        -3.2184   -5.7724   -0.4560 H         1 <0>         0.0750
     29 H11        -1.5011   -6.2539   -0.6262 H         1 <0>         0.0777
     30 H12        -0.6083   -6.4870    3.4760 H         1 <0>         0.4005
     31 H13        -4.2944   -3.7026    1.1591 H         1 <0>         0.4120
     32 H14        -4.4974   -4.4452    2.6525 H         1 <0>         0.4073
@<TRIPOS>BOND
     1    1    5 2
     2    1    2 1
     3    1   21 1
     4    2    3 2
     5    2   22 1
     6    3    4 1
     7    3   20 1
     8    4    5 1
     9    5    6 1
    10    6    7 2
    11    6    8 am
    12    8    9 1
    13    8   23 1
    14    9   10 1
    15    9   14 1
    16    9   11 1
    17   11   12 1
    18   11   24 1
    19   11   25 1
    20   12   13 1
    21   12   26 1
    22   12   27 1
    23   13   14 1
    24   13   28 1
    25   13   29 1
    26   14   15 1
    27   14   16 1
    28   16   17 2
    29   16   19 1
    30   17   18 1
    31   18   30 1
    32   19   31 1
    33   19   32 1
@<TRIPOS>MOLECULE
ZINC04476910
   29    30     0     0     0
SMALL
USER_CHARGES
3-(4-chlorophenyl)-N,N-bis[3-(4-chlorophenyl)-5-hydroxy-5-(trifluoromethyl)-4H-pyrazol-2-yl]-5-hydroxy-5-(trifluoromethyl)-4H-pyrazole-1-carbothioamide
@<TRIPOS>ATOM
      1 C1          3.5617   -2.0310   -0.3999 C.ar      1 <0>        -0.0673
      2 C2          4.0815   -3.3012   -0.5344 C.ar      1 <0>        -0.1103
      3 C3          3.2377   -4.3992   -0.5574 C.ar      1 <0>        -0.0108
      4 C4          1.8681   -4.2300   -0.4414 C.ar      1 <0>        -0.1126
      5 C5          1.3359   -2.9656   -0.3010 C.ar      1 <0>        -0.0594
      6 C6          2.1815   -1.8539   -0.2766 C.ar      1 <0>        -0.0445
      7 C7          1.6192   -0.4988   -0.1273 C.2       1 <0>         0.1839
      8 N1          0.3664   -0.2227   -0.0111 N.2       1 <0>        -0.2550
      9 N2          0.0927    1.1375    0.1173 N.pl3     1 <0>        -0.4511
     10 C8          1.3607    1.8834    0.0810 C.3       1 <0>         0.2981
     11 C9          2.4244    0.7803   -0.0865 C.3       1 <0>        -0.1233
     12 C10         1.5756    2.6442    1.3909 C.3       1 <0>         0.4148
     13 F1          1.4444    1.7625    2.4692 F         1 <0>        -0.1778
     14 F2          2.8575    3.2044    1.3999 F         1 <0>        -0.1701
     15 F3          0.6214    3.6613    1.5015 F         1 <0>        -0.1178
     16 O1          1.3855    2.7791   -1.0322 O.3       1 <0>        -0.5174
     17 C11        -1.1335    1.6816    0.2476 C.2       1 <0>         0.5819
     18 S1         -1.3040    3.3763    0.4206 S.2       1 <0>        -0.5490
     19 N3         -2.2254    0.8916    0.2417 N.pl3     1 <0>        -0.7743
     20 Cl1         3.8997   -5.9943   -0.7332 Cl        1 <0>        -0.0545
     21 H1          4.2205   -1.1753   -0.3862 H         1 <0>         0.1438
     22 H2          5.1487   -3.4398   -0.6260 H         1 <0>         0.1459
     23 H3          1.2154   -5.0903   -0.4604 H         1 <0>         0.1438
     24 H4          0.2676   -2.8350   -0.2106 H         1 <0>         0.1431
     25 H5          3.1072    0.7753    0.7631 H         1 <0>         0.1347
     26 H6          2.9750    0.9153   -1.0175 H         1 <0>         0.1476
     27 H7          0.6920    3.4527   -1.0106 H         1 <0>         0.4114
     28 H8         -2.1287   -0.0686    0.1437 H         1 <0>         0.4098
     29 H9         -3.1078    1.2831    0.3355 H         1 <0>         0.4365
@<TRIPOS>BOND
     1    1    6 ar
     2    1    2 ar
     3    1   21 1
     4    2    3 ar
     5    2   22 1
     6    3    4 ar
     7    3   20 1
     8    4    5 ar
     9    4   23 1
    10    5    6 ar
    11    5   24 1
    12    6    7 1
    13    7   11 1
    14    7    8 2
    15    8    9 1
    16    9   10 1
    17    9   17 1
    18   10   11 1
    19   10   12 1
    20   10   16 1
    21   11   25 1
    22   11   26 1
    23   12   13 1
    24   12   14 1
    25   12   15 1
    26   16   27 1
    27   17   18 2
    28   17   19 1
    29   19   28 1
    30   19   29 1
@<TRIPOS>MOLECULE
ZINC35676159
   31    33     0     0     0
SMALL
USER_CHARGES

@<TRIPOS>ATOM
      1 C1          0.0154    1.2991   -0.8205 C.ar      1 <0>        -0.0941
      2 C2          0.6260    0.5838   -1.8352 C.ar      1 <0>        -0.1317
      3 C3          1.8231   -0.0660   -1.6012 C.ar      1 <0>         0.1363
      4 C4          2.4146   -0.0004   -0.3430 C.ar      1 <0>        -0.1542
      5 C5          1.7994    0.7183    0.6734 C.ar      1 <0>        -0.0717
      6 C6          0.6009    1.3665    0.4324 C.ar      1 <0>         0.0850
      7 F1          0.0014    2.0660    1.4206 F         1 <0>        -0.1274
      8 S1          3.9405   -0.8279   -0.0404 S.3       1 <0>         0.0249
      9 C7          3.4844   -2.5237    0.1041 C.ar      1 <0>        -0.1760
     10 C8          2.1446   -2.8858    0.0893 C.ar      1 <0>        -0.0752
     11 C9          1.7898   -4.2199    0.2035 C.ar      1 <0>         0.0520
     12 C10         2.7746   -5.1977    0.3334 C.ar      1 <0>         0.1320
     13 C11         4.1111   -4.8377    0.3478 C.ar      1 <0>        -0.1721
     14 C12         4.4696   -3.5027    0.2276 C.ar      1 <0>         0.2596
     15 N1          5.8227   -3.1375    0.2362 N.pl3     1 <0>        -0.8632
     16 O1          2.4090   -6.5039    0.4470 O.3       1 <0>        -0.2991
     17 C13         1.1792   -6.7707    1.1259 C.3       1 <0>         0.0514
     18 C14         0.1067   -5.8431    0.6140 C.2       1 <0>         0.4899
     19 O2         -1.0500   -6.2074    0.5837 O.2       1 <0>        -0.5124
     20 N2          0.4390   -4.6045    0.1896 N.am      1 <0>        -0.6564
     21 F2          2.4183   -0.7645   -2.5927 F         1 <0>        -0.1142
     22 H1         -0.9177    1.8096   -1.0074 H         1 <0>         0.1543
     23 H2          0.1664    0.5329   -2.8112 H         1 <0>         0.1554
     24 H3          2.2555    0.7710    1.6509 H         1 <0>         0.1580
     25 H4          1.3805   -2.1292   -0.0107 H         1 <0>         0.1281
     26 H5          4.8741   -5.5955    0.4478 H         1 <0>         0.1471
     27 H6          6.0736   -2.2039    0.1563 H         1 <0>         0.4029
     28 H7          6.5083   -3.8182    0.3221 H         1 <0>         0.4059
     29 H8          0.8819   -7.8037    0.9456 H         1 <0>         0.1482
     30 H9          1.3141   -6.6139    2.1961 H         1 <0>         0.1025
     31 H10        -0.2448   -3.9900   -0.1197 H         1 <0>         0.4142
@<TRIPOS>BOND
     1    1    6 ar
     2    1    2 ar
     3    1   22 1
     4    2    3 ar
     5    2   23 1
     6    3    4 ar
     7    3   21 1
     8    4    5 ar
     9    4    8 1
    10    5    6 ar
    11    5   24 1
    12    6    7 1
    13    8    9 1
    14    9   14 ar
    15    9   10 ar
    16   10   11 ar
    17   10   25 1
    18   11   20 1
    19   11   12 ar
    20   12   13 ar
    21   12   16 1
    22   13   14 ar
    23   13   26 1
    24   14   15 1
    25   15   27 1
    26   15   28 1
    27   16   17 1
    28   17   18 1
    29   17   29 1
    30   17   30 1
    31   18   19 2
    32   18   20 am
    33   20   31 1
@<TRIPOS>MOLECULE
ZINC37928985
   41    42     0     0     0
SMALL
USER_CHARGES

@<TRIPOS>ATOM
      1 C1         -0.7735    1.1538    0.1815 C.3       1 <0>        -0.1593
      2 C2         -0.2792   -0.2921    0.1048 C.3       1 <0>        -0.0852
      3 H1          0.2822   -0.4357   -0.8184 H         1 <0>         0.0759
      4 C3         -1.4778   -1.2427    0.1258 C.3       1 <0>        -0.1175
      5 C4         -2.2659   -1.0412    1.4217 C.3       1 <0>        -0.1211
      6 C5         -1.3609   -1.3350    2.6199 C.3       1 <0>        -0.1309
      7 C6         -0.1622   -0.3844    2.5988 C.3       1 <0>         0.1559
      8 H2         -0.5144    0.6457    2.6534 H         1 <0>         0.0952
      9 C7          0.6258   -0.5859    1.3029 C.3       1 <0>        -0.0902
     10 H3          0.9780   -1.6160    1.2483 H         1 <0>         0.0766
     11 C8          1.8245    0.3647    1.2819 C.3       1 <0>        -0.1532
     12 N1          0.7043   -0.6657    3.7461 N.pl3     1 <0>        -1.1137
     13 S1          0.8917    0.4668    4.9396 S.o2      1 <0>         2.6937
     14 O1          1.7487   -0.1096    5.9156 O.2       1 <0>        -0.9583
     15 O2          1.1932    1.6946    4.2908 O.2       1 <0>        -0.9480
     16 C9         -0.6791    0.6767    5.7098 C.ar      1 <0>        -0.7316
     17 C10        -1.3279    1.8941    5.6361 C.ar      1 <0>        -0.0113
     18 C11        -2.5624    2.0594    6.2406 C.ar      1 <0>         0.0250
     19 C12        -3.1494    1.0055    6.9208 C.ar      1 <0>        -0.0487
     20 C13        -2.5042   -0.2131    6.9973 C.ar      1 <0>        -0.1835
     21 C14        -1.2684   -0.3831    6.3863 C.ar      1 <0>         0.3068
     22 N2         -0.6162   -1.6178    6.4572 N.pl3     1 <0>        -0.8617
     23 F1         -3.1951    3.2509    6.1673 F         1 <0>        -0.1378
     24 H4          0.0805    1.8310    0.1665 H         1 <0>         0.0620
     25 H5         -1.4182    1.3631   -0.6721 H         1 <0>         0.0561
     26 H6         -1.3349    1.2974    1.1047 H         1 <0>         0.0587
     27 H7         -2.1226   -1.0334   -0.7278 H         1 <0>         0.0654
     28 H8         -1.1257   -2.2728    0.0712 H         1 <0>         0.0632
     29 H9         -2.6180   -0.0111    1.4763 H         1 <0>         0.0683
     30 H10        -3.1198   -1.7184    1.4367 H         1 <0>         0.0659
     31 H11        -1.9223   -1.1914    3.5431 H         1 <0>         0.0664
     32 H12        -1.0087   -2.3651    2.5652 H         1 <0>         0.0700
     33 H13         1.4723    1.3947    1.3365 H         1 <0>         0.0665
     34 H14         2.4692    0.1553    2.1355 H         1 <0>         0.0535
     35 H15         2.3859    0.2211    0.3587 H         1 <0>         0.0569
     36 H16         1.1684   -1.5154    3.8066 H         1 <0>         0.4169
     37 H17        -0.8717    2.7175    5.1068 H         1 <0>         0.1547
     38 H18        -4.1123    1.1369    7.3919 H         1 <0>         0.1449
     39 H19        -2.9620   -1.0345    7.5285 H         1 <0>         0.1419
     40 H20         0.2243   -1.7498    5.9914 H         1 <0>         0.3997
     41 H21        -1.0043   -2.3424    6.9723 H         1 <0>         0.4119
@<TRIPOS>BOND
     1    1    2 1
     2    1   24 1
     3    1   25 1
     4    1   26 1
     5    2    3 1
     6    2    9 1
     7    2    4 1
     8    4    5 1
     9    4   27 1
    10    4   28 1
    11    5    6 1
    12    5   29 1
    13    5   30 1
    14    6    7 1
    15    6   31 1
    16    6   32 1
    17    7    8 1
    18    7    9 1
    19    7   12 1
    20    9   10 1
    21    9   11 1
    22   11   33 1
    23   11   34 1
    24   11   35 1
    25   12   13 1
    26   12   36 1
    27   13   14 2
    28   13   15 2
    29   13   16 1
    30   16   21 ar
    31   16   17 ar
    32   17   18 ar
    33   17   37 1
    34   18   19 ar
    35   18   23 1
    36   19   20 ar
    37   19   38 1
    38   20   21 ar
    39   20   39 1
    40   21   22 1
    41   22   40 1
    42   22   41 1
@<TRIPOS>MOLECULE
ZINC50367440
   35    36     0     0     0
SMALL
USER_CHARGES

@<TRIPOS>ATOM
      1 C1         -0.0173    1.4248    0.0099 C.3       1 <0>         0.0299
      2 O1          0.0021   -0.0041    0.0020 O.3       1 <0>        -0.3778
      3 C2         -1.2953   -0.6030    0.0112 C.3       1 <0>         0.0767
      4 H1         -2.0093    0.0435    0.5214 H         1 <0>         0.0726
      5 C3         -1.7669   -0.8969   -1.4346 C.3       1 <0>        -0.1437
      6 C4         -2.8061   -2.0275   -1.2320 C.3       1 <0>        -0.1234
      7 C5         -2.2050   -2.8969   -0.1083 C.3       1 <0>        -0.1323
      8 C6         -1.2451   -1.9897    0.6853 C.3       1 <0>         0.1419
      9 H2         -0.2321   -2.3897    0.6414 H         1 <0>         0.1079
     10 N1         -1.6845   -1.8864    2.0790 N.am      1 <0>        -0.7172
     11 C7         -1.2691   -2.7931    2.9855 C.2       1 <0>         0.5638
     12 O2         -0.5298   -3.6966    2.6467 O.2       1 <0>        -0.5229
     13 C8         -1.7124   -2.6888    4.3917 C.ar      1 <0>        -0.0675
     14 C9         -1.2789   -3.6233    5.3331 C.ar      1 <0>        -0.1240
     15 C10        -1.6981   -3.5201    6.6498 C.ar      1 <0>         0.2387
     16 C11        -2.5493   -2.4872    7.0299 C.ar      1 <0>        -0.0965
     17 C12        -2.9796   -1.5605    6.0959 C.ar      1 <0>         0.0134
     18 C13        -2.5613   -1.6521    4.7829 C.ar      1 <0>        -0.1309
     19 Cl1        -4.0421   -0.2751    6.5781 Cl        1 <0>        -0.0390
     20 Cl2        -3.0735   -2.3606    8.6800 Cl        1 <0>        -0.0420
     21 N2         -1.2663   -4.4539    7.5960 N.pl3     1 <0>        -0.8613
     22 H3          1.0053    1.8021    0.0021 H         1 <0>         0.0884
     23 H4         -0.5445    1.7859   -0.8732 H         1 <0>         0.0434
     24 H5         -0.5275    1.7763    0.9067 H         1 <0>         0.0422
     25 H6         -2.2350   -0.0164   -1.8748 H         1 <0>         0.0735
     26 H7         -0.9357   -1.2420   -2.0494 H         1 <0>         0.0832
     27 H8         -3.7653   -1.6129   -0.9218 H         1 <0>         0.0692
     28 H9         -2.9190   -2.6102   -2.1462 H         1 <0>         0.0744
     29 H10        -2.9970   -3.2619    0.5456 H         1 <0>         0.0740
     30 H11        -1.6582   -3.7364   -0.5377 H         1 <0>         0.0786
     31 H12        -2.2744   -1.1654    2.3494 H         1 <0>         0.3995
     32 H13        -0.6188   -4.4249    5.0363 H         1 <0>         0.1517
     33 H14        -2.8951   -0.9247    4.0577 H         1 <0>         0.1409
     34 H15        -0.6732   -5.1742    7.3309 H         1 <0>         0.4088
     35 H16        -1.5598   -4.3817    8.5177 H         1 <0>         0.4059
@<TRIPOS>BOND
     1    1    2 1
     2    1   22 1
     3    1   23 1
     4    1   24 1
     5    2    3 1
     6    3    4 1
     7    3    8 1
     8    3    5 1
     9    5    6 1
    10    5   25 1
    11    5   26 1
    12    6    7 1
    13    6   27 1
    14    6   28 1
    15    7    8 1
    16    7   29 1
    17    7   30 1
    18    8    9 1
    19    8   10 1
    20   10   11 am
    21   10   31 1
    22   11   12 2
    23   11   13 1
    24   13   18 ar
    25   13   14 ar
    26   14   15 ar
    27   14   32 1
    28   15   16 ar
    29   15   21 1
    30   16   17 ar
    31   16   20 1
    32   17   18 ar
    33   17   19 1
    34   18   33 1
    35   21   34 1
    36   21   35 1
@<TRIPOS>MOLECULE
ZINC55188744
   30    31     0     0     0
SMALL
USER_CHARGES

@<TRIPOS>ATOM
      1 C1         -0.0187    1.5258    0.0104 C.3       1 <0>        -0.1593
      2 C2          0.0021   -0.0041    0.0020 C.3       1 <0>         0.1807
      3 H1          0.5123   -0.3556   -0.8948 H         1 <0>         0.1021
      4 C3          0.7309   -0.5033    1.2229 C.ar      1 <0>        -0.0770
      5 C4          0.0806   -0.5585    2.4415 C.ar      1 <0>        -0.1068
      6 C5          0.7485   -1.0167    3.5615 C.ar      1 <0>        -0.0856
      7 C6          2.0680   -1.4201    3.4628 C.ar      1 <0>        -0.0899
      8 C7          2.7183   -1.3647    2.2432 C.ar      1 <0>        -0.0860
      9 C8          2.0480   -0.9113    1.1227 C.ar      1 <0>        -0.1002
     10 Br1         2.9826   -2.0465    4.9948 Br        1 <0>        -0.0475
     11 N1         -1.3723   -0.5112    0.0124 N.am      1 <0>        -0.7087
     12 C9         -2.0508   -0.6427   -1.1446 C.2       1 <0>         0.5940
     13 O1         -1.5220   -0.3404   -2.1976 O.2       1 <0>        -0.5320
     14 C10        -3.4315   -1.1521   -1.1342 C.2       1 <0>         0.0401
     15 C11        -4.1298   -1.2949   -2.3068 C.2       1 <0>        -0.1570
     16 S1         -5.6855   -1.9274   -1.6936 S.3       1 <0>         0.0130
     17 C12        -5.2587   -1.9394    0.0416 C.2       1 <0>         0.3831
     18 N2         -4.0212   -1.4873    0.0157 N.2       1 <0>        -0.5672
     19 N3         -6.0250   -2.3274    1.1276 N.pl3     1 <0>        -0.7943
     20 H2          1.0039    1.9031    0.0027 H         1 <0>         0.0708
     21 H3         -0.5459    1.8868   -0.8726 H         1 <0>         0.0688
     22 H4         -0.5289    1.8773    0.9072 H         1 <0>         0.0604
     23 H5         -0.9495   -0.2432    2.5185 H         1 <0>         0.1307
     24 H6          0.2404   -1.0595    4.5135 H         1 <0>         0.1351
     25 H7          3.7485   -1.6796    2.1657 H         1 <0>         0.1363
     26 H8          2.5544   -0.8718    0.1697 H         1 <0>         0.1362
     27 H9         -1.7940   -0.7522    0.8520 H         1 <0>         0.4098
     28 H10        -3.8240   -1.0832   -3.3207 H         1 <0>         0.2082
     29 H11        -6.9305   -2.6480    0.9924 H         1 <0>         0.4231
     30 H12        -5.6564   -2.2786    2.0235 H         1 <0>         0.4189
@<TRIPOS>BOND
     1    1    2 1
     2    1   20 1
     3    1   21 1
     4    1   22 1
     5    2    3 1
     6    2    4 1
     7    2   11 1
     8    4    9 ar
     9    4    5 ar
    10    5    6 ar
    11    5   23 1
    12    6    7 ar
    13    6   24 1
    14    7    8 ar
    15    7   10 1
    16    8    9 ar
    17    8   25 1
    18    9   26 1
    19   11   12 am
    20   11   27 1
    21   12   13 2
    22   12   14 1
    23   14   18 1
    24   14   15 2
    25   15   16 1
    26   15   28 1
    27   16   17 1
    28   17   18 2
    29   17   19 1
    30   19   29 1
    31   19   30 1
@<TRIPOS>MOLECULE
ZINC10031261
   63    66     0     0     0
SMALL
USER_CHARGES
methyl 4-benzyl-8-[3-(4-methoxyphenyl)sulfanylpropanoylamino]-7-thia-4-azabicyclo[4.3.0]nona-8,10-diene-9-carboxylate
@<TRIPOS>ATOM
      1 C1         -6.7662    6.5787  -12.0197 C.3       1 <0>         0.0254
      2 O1         -5.8659    6.9366  -13.0702 O.3       1 <0>        -0.3137
      3 C2         -4.5412    6.9687  -12.7639 C.ar      1 <0>         0.1305
      4 C3         -3.6129    7.3083  -13.7371 C.ar      1 <0>        -0.1316
      5 C4         -2.2677    7.3417  -13.4272 C.ar      1 <0>        -0.0548
      6 C5         -1.8441    7.0350  -12.1402 C.ar      1 <0>        -0.1249
      7 C6         -2.7743    6.6899  -11.1677 C.ar      1 <0>        -0.0898
      8 C7         -4.1194    6.6623  -11.4785 C.ar      1 <0>        -0.1902
      9 S1         -0.1279    7.0766  -11.7434 S.3       1 <0>        -0.1047
     10 C8         -0.0715    6.6141   -9.9902 C.3       1 <0>        -0.1017
     11 C9          1.3813    6.6109   -9.5102 C.3       1 <0>        -0.1205
     12 C10         1.4282    6.2266   -8.0537 C.2       1 <0>         0.5232
     13 O2          0.4008    5.9797   -7.4583 O.2       1 <0>        -0.4890
     14 N1          2.6118    6.1574   -7.4128 N.am      1 <0>        -0.6195
     15 C11         2.6549    5.8040   -6.0732 C.2       1 <0>         0.1103
     16 C12         3.7666    5.6797   -5.2486 C.2       1 <0>        -0.2167
     17 C13         3.5352    5.2929   -3.8693 C.2       1 <0>        -0.0363
     18 C14         2.2406    5.0922   -3.5347 C.2       1 <0>        -0.3136
     19 S2          1.3355    5.4107   -5.0205 S.3       1 <0>         0.3390
     20 C15         1.7228    4.6869   -2.1901 C.3       1 <0>         0.1083
     21 C16         3.9816    5.1408   -1.4401 C.3       1 <0>         0.0033
     22 C17         4.6317    5.1106   -2.8263 C.3       1 <0>        -0.0920
     23 C18         2.4510    3.9366   -0.0006 C.3       1 <0>         0.0508
     24 C19         1.1563    3.1654    0.0076 C.ar      1 <0>        -0.1643
     25 C20         1.1750    1.7832    0.0004 C.ar      1 <0>        -0.0928
     26 C21        -0.0126    1.0758    0.0080 C.ar      1 <0>        -0.1131
     27 C22        -1.2190    1.7506    0.0173 C.ar      1 <0>        -0.0834
     28 C23        -1.2377    3.1328    0.0299 C.ar      1 <0>        -0.1135
     29 C24        -0.0501    3.8402    0.0228 C.ar      1 <0>        -0.0970
     30 C25         5.1188    5.9297   -5.7519 C.2       1 <0>         0.5207
     31 O3          5.7676    5.0191   -6.2308 O.2       1 <0>        -0.4813
     32 O4          5.6449    7.1699   -5.6844 O.3       1 <0>        -0.3505
     33 C26         6.9902    7.3443   -6.2022 C.3       1 <0>         0.0296
     34 H1         -6.5246    5.5789  -11.6591 H         1 <0>         0.0566
     35 H2         -6.6720    7.2927  -11.2015 H         1 <0>         0.0566
     36 H3         -7.7886    6.5916  -12.3973 H         1 <0>         0.1044
     37 H4         -3.9424    7.5464  -14.7377 H         1 <0>         0.1404
     38 H5         -1.5452    7.6065  -14.1849 H         1 <0>         0.1376
     39 H6         -2.4457    6.4473  -10.1679 H         1 <0>         0.1256
     40 H7         -4.8431    6.3983  -10.7215 H         1 <0>         0.1329
     41 H8         -0.4984    5.6193   -9.8630 H         1 <0>         0.0993
     42 H9         -0.6456    7.3333   -9.4061 H         1 <0>         0.0996
     43 H10         1.8082    7.6057   -9.6374 H         1 <0>         0.1212
     44 H11         1.9554    5.8916  -10.0943 H         1 <0>         0.1210
     45 H12         3.4334    6.3549   -7.8890 H         1 <0>         0.4286
     46 H13         0.9825    3.8951   -2.3045 H         1 <0>         0.1415
     47 H14         1.2695    5.5465   -1.6963 H         1 <0>         0.1438
     48 H15         3.6161    6.1469   -1.2341 H         1 <0>         0.1369
     49 H16         4.7211    4.8660   -0.6880 H         1 <0>         0.1401
     50 H17         5.3573    5.9198   -2.9101 H         1 <0>         0.1239
     51 H18         5.1289    4.1527   -2.9787 H         1 <0>         0.1094
     52 H19         2.3126    4.8845    0.5194 H         1 <0>         0.1399
     53 H20         3.2233    3.3553    0.5031 H         1 <0>         0.1391
     54 H21         2.1175    1.2560   -0.0115 H         1 <0>         0.1314
     55 H22         0.0021   -0.0041    0.0020 H         1 <0>         0.1360
     56 H23        -2.1469    1.1980    0.0188 H         1 <0>         0.1357
     57 H24        -2.1802    3.6600    0.0414 H         1 <0>         0.1365
     58 H25        -0.0647    4.9201    0.0288 H         1 <0>         0.1315
     59 H26         7.6780    6.7039   -5.6499 H         1 <0>         0.0684
     60 H27         7.0109    7.0744   -7.2581 H         1 <0>         0.0689
     61 H28         7.2916    8.3855   -6.0873 H         1 <0>         0.1105
     62 N2          2.8674    4.1715   -1.4000 N.4       1 <0>        -0.3939
     63 H29         3.1822    3.2834   -1.8079 H         1 <0>         0.4305
@<TRIPOS>BOND
     1    1    2 1
     2    1   34 1
     3    1   35 1
     4    1   36 1
     5    2    3 1
     6    3    8 ar
     7    3    4 ar
     8    4    5 ar
     9    4   37 1
    10    5    6 ar
    11    5   38 1
    12    6    7 ar
    13    6    9 1
    14    7    8 ar
    15    7   39 1
    16    8   40 1
    17    9   10 1
    18   10   11 1
    19   10   41 1
    20   10   42 1
    21   11   12 1
    22   11   43 1
    23   11   44 1
    24   12   13 2
    25   12   14 am
    26   14   15 1
    27   14   45 1
    28   15   19 1
    29   15   16 2
    30   16   17 1
    31   16   30 1
    32   17   22 1
    33   17   18 2
    34   18   19 1
    35   18   20 1
    36   20   46 1
    37   20   47 1
    38   20   62 1
    39   21   22 1
    40   21   48 1
    41   21   49 1
    42   21   62 1
    43   22   50 1
    44   22   51 1
    45   23   24 1
    46   23   52 1
    47   23   53 1
    48   23   62 1
    49   24   29 ar
    50   24   25 ar
    51   25   26 ar
    52   25   54 1
    53   26   27 ar
    54   26   55 1
    55   27   28 ar
    56   27   56 1
    57   28   29 ar
    58   28   57 1
    59   29   58 1
    60   30   31 2
    61   30   32 1
    62   32   33 1
    63   33   59 1
    64   33   60 1
    65   33   61 1
    66   62   63 1
@<TRIPOS>MOLECULE
ZINC14740636
   71    75     0     0     0
SMALL
USER_CHARGES

@<TRIPOS>ATOM
      1 C1         -0.0187    1.5258    0.0104 C.3       1 <0>        -0.1600
      2 C2          0.0021   -0.0041    0.0020 C.3       1 <0>        -0.1272
      3 C3         -1.4333   -0.5336    0.0129 C.3       1 <0>        -0.1208
      4 C4         -1.4126   -2.0635    0.0045 C.3       1 <0>        -0.0917
      5 C5         -2.8264   -2.5851    0.0152 C.cat     1 <0>         0.3816
      6 N1         -3.5563   -2.8579    1.1181 N.pl3     1 <0>        -0.5070
      7 H1         -3.2688   -2.7545    2.0387 H         1 <0>         0.4776
      8 C6         -4.7779   -3.3072    0.6942 C.2       1 <0>         0.1057
      9 C7         -4.7523   -3.2935   -0.6521 C.2       1 <0>        -0.0607
     10 N2         -3.5500   -2.8427   -1.0398 N.pl3     1 <0>        -0.4792
     11 C8         -5.8790   -3.7072   -1.5635 C.3       1 <0>         0.0718
     12 N3         -6.6548   -2.5218   -1.9521 N.4       1 <0>        -0.3939
     13 C9         -7.8151   -2.9340   -2.7575 C.3       1 <0>         0.0031
     14 C10        -8.7523   -1.7354   -2.9041 C.3       1 <0>        -0.1294
     15 C11        -7.9775   -0.5313   -3.3809 C.2       1 <0>         0.1937
     16 C12        -6.6283   -0.4841   -3.3045 C.2       1 <0>        -0.2494
     17 C13        -5.9427    0.6562   -3.7512 C.2       1 <0>        -0.0157
     18 C14        -6.6569    1.7226   -4.2704 C.2       1 <0>        -0.1221
     19 C15        -8.0688    1.6280   -4.3359 C.2       1 <0>         0.5229
     20 O1         -8.7247    2.5506   -4.7899 O.2       1 <0>        -0.4846
     21 N4         -8.6815    0.5165   -3.8948 N.am      1 <0>        -0.4796
     22 C16       -10.1420    0.4287   -3.9682 C.3       1 <0>         0.1139
     23 C17       -10.7423    0.9681   -2.6955 C.2       1 <0>        -0.2218
     24 C18       -11.6426    1.9399   -2.7472 C.2       1 <0>        -0.0353
     25 C19       -12.2314    2.4690   -1.4989 C.ar      1 <0>        -0.0840
     26 C20       -11.8376    1.9517   -0.2643 C.ar      1 <0>        -0.1083
     27 C21       -12.3910    2.4500    0.8973 C.ar      1 <0>        -0.1232
     28 C22       -13.3348    3.4599    0.8396 C.ar      1 <0>        -0.1025
     29 C23       -13.7298    3.9767   -0.3814 C.ar      1 <0>        -0.1149
     30 C24       -13.1791    3.4918   -1.5499 C.ar      1 <0>        -0.0930
     31 C25        -5.9588    2.9381   -4.7472 C.ar      1 <0>        -0.0039
     32 C26        -5.2446    3.7515   -3.8605 C.ar      1 <0>        -0.1596
     33 C27        -4.6087    4.8741   -4.3473 C.ar      1 <0>         0.1066
     34 N5         -4.6677    5.1841   -5.6287 N.ar      1 <0>        -0.4723
     35 C28        -5.3301    4.4446   -6.4982 C.ar      1 <0>         0.1117
     36 C29        -5.9902    3.3019   -6.0980 C.ar      1 <0>        -0.1417
     37 C30        -5.8166   -1.6278   -2.7553 C.3       1 <0>         0.0647
     38 H2          1.0039    1.9031    0.0027 H         1 <0>         0.0698
     39 H3         -0.5459    1.8868   -0.8726 H         1 <0>         0.0573
     40 H4         -0.5289    1.8773    0.9072 H         1 <0>         0.0586
     41 H5          0.5123   -0.3556   -0.8948 H         1 <0>         0.0745
     42 H6          0.5293   -0.3651    0.8851 H         1 <0>         0.0757
     43 H7         -1.9435   -0.1821    0.9097 H         1 <0>         0.0794
     44 H8         -1.9605   -0.1726   -0.8702 H         1 <0>         0.0751
     45 H9         -0.9024   -2.4150   -0.8923 H         1 <0>         0.1338
     46 H10        -0.8854   -2.4246    0.8875 H         1 <0>         0.1363
     47 H11        -5.6033   -3.6141    1.3194 H         1 <0>         0.2408
     48 H12        -5.4695   -4.1817   -2.4552 H         1 <0>         0.1635
     49 H13        -6.5279   -4.4113   -1.0426 H         1 <0>         0.1806
     50 H14        -7.4804   -3.2599   -3.7423 H         1 <0>         0.1485
     51 H15        -8.3379   -3.7488   -2.2566 H         1 <0>         0.1576
     52 H16        -9.5331   -1.9728   -3.6267 H         1 <0>         0.1481
     53 H17        -9.2092   -1.5131   -1.9398 H         1 <0>         0.1277
     54 H18        -4.8654    0.7016   -3.6900 H         1 <0>         0.1440
     55 H19       -10.4991    1.0145   -4.8152 H         1 <0>         0.1172
     56 H20       -10.4374   -0.6127   -4.0963 H         1 <0>         0.1072
     57 H21       -10.4391    0.5630   -1.7414 H         1 <0>         0.1168
     58 H22       -11.9457    2.3450   -3.7013 H         1 <0>         0.1281
     59 H23       -11.1014    1.1629   -0.2179 H         1 <0>         0.1155
     60 H24       -12.0871    2.0505    1.8535 H         1 <0>         0.1250
     61 H25       -13.7653    3.8462    1.7516 H         1 <0>         0.1295
     62 H26       -14.4676    4.7645   -0.4198 H         1 <0>         0.1320
     63 H27       -13.4845    3.8997   -2.5021 H         1 <0>         0.1297
     64 H28        -5.1923    3.5040   -2.8105 H         1 <0>         0.1319
     65 H29        -4.0553    5.5083   -3.6707 H         1 <0>         0.1620
     66 H30        -5.3519    4.7359   -7.5379 H         1 <0>         0.1648
     67 H31        -6.5265    2.6989   -6.8158 H         1 <0>         0.1352
     68 H32        -5.0146   -1.2319   -2.1322 H         1 <0>         0.1199
     69 H33        -5.3830   -2.1897   -3.5826 H         1 <0>         0.1433
     70 H34        -3.2629   -2.7285   -1.9593 H         1 <0>         0.4669
     71 H35        -6.9697   -2.0375   -1.1248 H         1 <0>         0.4324
@<TRIPOS>BOND
     1    1    2 1
     2    1   38 1
     3    1   39 1
     4    1   40 1
     5    2    3 1
     6    2   41 1
     7    2   42 1
     8    3    4 1
     9    3   43 1
    10    3   44 1
    11    4    5 1
    12    4   45 1
    13    4   46 1
    14    5   10 2
    15    5    6 1
    16    6    7 1
    17    6    8 1
    18    8    9 2
    19    8   47 1
    20    9   10 1
    21    9   11 1
    22   10   70 1
    23   11   12 1
    24   11   48 1
    25   11   49 1
    26   12   37 1
    27   12   13 1
    28   12   71 1
    29   13   14 1
    30   13   50 1
    31   13   51 1
    32   14   15 1
    33   14   52 1
    34   14   53 1
    35   15   21 1
    36   15   16 2
    37   16   17 1
    38   16   37 1
    39   17   18 2
    40   17   54 1
    41   18   19 1
    42   18   31 1
    43   19   20 2
    44   19   21 am
    45   21   22 1
    46   22   23 1
    47   22   55 1
    48   22   56 1
    49   23   24 2
    50   23   57 1
    51   24   25 1
    52   24   58 1
    53   25   30 ar
    54   25   26 ar
    55   26   27 ar
    56   26   59 1
    57   27   28 ar
    58   27   60 1
    59   28   29 ar
    60   28   61 1
    61   29   30 ar
    62   29   62 1
    63   30   63 1
    64   31   36 ar
    65   31   32 ar
    66   32   33 ar
    67   32   64 1
    68   33   34 ar
    69   33   65 1
    70   34   35 ar
    71   35   36 ar
    72   35   66 1
    73   36   67 1
    74   37   68 1
    75   37   69 1
@<TRIPOS>MOLECULE
ZINC31057745
   71    75     0     0     0
SMALL
USER_CHARGES
(3R)-N-[(1R)-1-[4-[(3R)-3-methyl-1-piperidyl]phenyl]ethyl]-1-[[3-(2-thienyl)-1,2,4-oxadiazol-5-yl]methyl]piperidine-3-carboxamide
@<TRIPOS>ATOM
      1 C1         -2.8441   13.1036  -12.1346 C.3       1 <0>        -0.1498
      2 C2         -3.0655   14.0031  -10.9169 C.3       1 <0>        -0.0922
      3 H1         -3.8985   14.6922  -11.1202 H         1 <0>         0.0821
      4 C3         -1.7922   14.8054  -10.6347 C.3       1 <0>        -0.1203
      5 C4         -2.0028   15.6576   -9.3801 C.3       1 <0>        -0.1226
      6 C5         -2.3676   14.7465   -8.2058 C.3       1 <0>         0.0585
      7 N1         -3.5922   14.0015   -8.5246 N.pl3     1 <0>        -0.4894
      8 C6         -3.3994   13.1400   -9.6981 C.3       1 <0>         0.0559
      9 C7         -4.0271   13.2589   -7.4245 C.ar      1 <0>         0.1256
     10 C8         -4.2692   13.8895   -6.2107 C.ar      1 <0>        -0.1351
     11 C9         -4.6995   13.1523   -5.1251 C.ar      1 <0>        -0.0778
     12 C10        -4.8894   11.7879   -5.2453 C.ar      1 <0>        -0.1297
     13 C11        -4.6438   11.1560   -6.4506 C.ar      1 <0>        -0.0874
     14 C12        -4.2188   11.8881   -7.5418 C.ar      1 <0>        -0.1694
     15 C13        -5.3590   10.9867   -4.0585 C.3       1 <0>         0.1933
     16 H2         -5.1244   11.5257   -3.1288 H         1 <0>         0.0975
     17 C14        -6.8622   10.7287   -4.1799 C.3       1 <0>        -0.1592
     18 N2         -4.6456    9.7077   -4.0194 N.am      1 <0>        -0.7234
     19 C15        -4.4969    9.0544   -2.8500 C.2       1 <0>         0.5245
     20 O1         -4.9537    9.5254   -1.8300 O.2       1 <0>        -0.5341
     21 C16        -3.7630    7.7388   -2.8099 C.3       1 <0>        -0.1314
     22 H3         -2.7364    7.9002   -3.1706 H         1 <0>         0.1240
     23 C17        -4.4806    6.7256   -3.7061 C.3       1 <0>        -0.1308
     24 C18        -3.7637    5.3759   -3.6127 C.3       1 <0>        -0.1400
     25 C19        -3.7367    4.9180   -2.1527 C.3       1 <0>        -0.0150
     26 N3         -3.0394    5.9203   -1.3369 N.4       1 <0>        -0.4002
     27 C20        -3.7360    7.2124   -1.3731 C.3       1 <0>         0.0150
     28 C21        -2.8725    5.4507    0.0450 C.3       1 <0>         0.1072
     29 C22        -2.3821    4.0258    0.0356 C.2       1 <0>         0.1093
     30 N4         -1.1328    3.6340    0.0329 N.2       1 <0>        -0.4241
     31 C23        -1.1761    2.2808    0.0204 C.2       1 <0>         0.2792
     32 N5         -2.4402    1.9357    0.0253 N.2       1 <0>        -0.3367
     33 O2         -3.1413    2.9254    0.0340 O.3       1 <0>         0.1126
     34 C24        -0.0165    1.3656    0.0096 C.2       1 <0>        -0.1516
     35 C25         0.0021   -0.0041    0.0020 C.2       1 <0>        -0.0783
     36 C26         1.2175   -0.6495   -0.0131 C.2       1 <0>        -0.1726
     37 C27         2.3588    0.0879   -0.0200 C.2       1 <0>        -0.1361
     38 S1          1.7254    1.7570   -0.0050 S.3       1 <0>         0.1340
     39 H4         -2.6041   13.7245  -13.0103 H         1 <0>         0.0627
     40 H5         -3.7583   12.5255  -12.3344 H         1 <0>         0.0577
     41 H6         -2.0107   12.4142  -11.9345 H         1 <0>         0.0546
     42 H7         -0.9513   14.1145  -10.4751 H         1 <0>         0.0612
     43 H8         -1.5726   15.4583  -11.4923 H         1 <0>         0.0708
     44 H9         -1.0768   16.2042   -9.1485 H         1 <0>         0.0751
     45 H10        -2.8177   16.3751   -9.5567 H         1 <0>         0.0756
     46 H11        -1.5459   14.0388   -8.0218 H         1 <0>         0.0439
     47 H12        -2.5341   15.3570   -7.3060 H         1 <0>         0.0835
     48 H13        -4.3220   12.5732   -9.8919 H         1 <0>         0.0830
     49 H14        -2.5726   12.4402   -9.5067 H         1 <0>         0.0460
     50 H15        -4.1215   14.9552   -6.1162 H         1 <0>         0.1294
     51 H16        -4.8883   13.6421   -4.1812 H         1 <0>         0.1268
     52 H17        -4.7885   10.0895   -6.5398 H         1 <0>         0.1168
     53 H18        -4.0314   11.3947   -8.4841 H         1 <0>         0.1293
     54 H19        -7.2050   10.1439   -3.3136 H         1 <0>         0.0626
     55 H20        -7.0644   10.1677   -5.1042 H         1 <0>         0.0614
     56 H21        -7.3978   11.6890   -4.2091 H         1 <0>         0.0742
     57 H22        -4.2313    9.2805   -4.9445 H         1 <0>         0.4207
     58 H23        -5.5228    6.6143   -3.3723 H         1 <0>         0.0927
     59 H24        -4.4650    7.0811   -4.7470 H         1 <0>         0.1010
     60 H25        -4.2996    4.6332   -4.2219 H         1 <0>         0.1208
     61 H26        -2.7339    5.4811   -3.9849 H         1 <0>         0.0934
     62 H27        -4.7672    4.8001   -1.7863 H         1 <0>         0.1397
     63 H28        -3.2093    3.9554   -2.0800 H         1 <0>         0.1206
     64 H29        -3.2081    7.9312   -0.7291 H         1 <0>         0.1478
     65 H30        -4.7664    7.0832   -1.0105 H         1 <0>         0.1436
     66 H31        -2.1397    6.0872    0.5626 H         1 <0>         0.1794
     67 H32        -3.8382    5.5026    0.5691 H         1 <0>         0.1694
     68 H33        -0.9197   -0.5668    0.0074 H         1 <0>         0.1434
     69 H34         1.2637   -1.7285   -0.0189 H         1 <0>         0.1504
     70 H35         3.3848   -0.2489   -0.0321 H         1 <0>         0.2009
     71 H36        -2.0386    6.0670   -1.7691 H         1 <0>         0.4498
@<TRIPOS>BOND
     1    1    2 1
     2    1   39 1
     3    1   40 1
     4    1   41 1
     5    2    3 1
     6    2    8 1
     7    2    4 1
     8    4    5 1
     9    4   42 1
    10    4   43 1
    11    5    6 1
    12    5   44 1
    13    5   45 1
    14    6    7 1
    15    6   46 1
    16    6   47 1
    17    7    8 1
    18    7    9 1
    19    8   48 1
    20    8   49 1
    21    9   14 ar
    22    9   10 ar
    23   10   11 ar
    24   10   50 1
    25   11   12 ar
    26   11   51 1
    27   12   13 ar
    28   12   15 1
    29   13   14 ar
    30   13   52 1
    31   14   53 1
    32   15   16 1
    33   15   17 1
    34   15   18 1
    35   17   54 1
    36   17   55 1
    37   17   56 1
    38   18   19 am
    39   18   57 1
    40   19   20 2
    41   19   21 1
    42   21   22 1
    43   21   27 1
    44   21   23 1
    45   23   24 1
    46   23   58 1
    47   23   59 1
    48   24   25 1
    49   24   60 1
    50   24   61 1
    51   25   26 1
    52   25   62 1
    53   25   63 1
    54   26   27 1
    55   26   28 1
    56   26   71 1
    57   27   64 1
    58   27   65 1
    59   28   29 1
    60   28   66 1
    61   28   67 1
    62   29   33 1
    63   29   30 2
    64   30   31 1
    65   31   32 2
    66   31   34 1
    67   32   33 1
    68   34   38 1
    69   34   35 2
    70   35   36 1
    71   35   68 1
    72   36   37 2
    73   36   69 1
    74   37   38 1
    75   37   70 1
@<TRIPOS>MOLECULE
ZINC38905162
   57    60     0     0     0
SMALL
USER_CHARGES

@<TRIPOS>ATOM
      1 C1         -0.0167    1.3788    0.0096 C.ar      1 <0>        -0.1185
      2 C2          1.1695    2.0899    0.0021 C.ar      1 <0>        -0.0970
      3 C3          2.3774    1.4209   -0.0134 C.ar      1 <0>        -0.0965
      4 C4          2.4001    0.0314   -0.0211 C.ar      1 <0>        -0.0900
      5 C5          1.2062   -0.6798   -0.0130 C.ar      1 <0>        -0.1347
      6 C6          0.0021   -0.0041    0.0020 C.ar      1 <0>        -0.1005
      7 S1          3.9390   -0.8266   -0.0415 S.3       1 <0>        -0.0860
      8 C7          3.4652   -2.5776   -0.0459 C.3       1 <0>        -0.1344
      9 C8          4.7243   -3.4466   -0.0635 C.3       1 <0>         0.1350
     10 N1          4.3416   -4.8607   -0.0671 N.am      1 <0>        -0.7160
     11 C9          5.2922   -5.8160   -0.0820 C.2       1 <0>         0.5262
     12 O1          6.4644   -5.5050   -0.0924 O.2       1 <0>        -0.5229
     13 C10         4.8986   -7.2707   -0.0857 C.3       1 <0>        -0.1304
     14 H1          4.3168   -7.4926    0.8090 H         1 <0>         0.1248
     15 C11         4.0574   -7.5697   -1.3299 C.3       1 <0>        -0.1317
     16 C12         3.7289   -9.0651   -1.3647 C.3       1 <0>        -0.1402
     17 C13         5.0309   -9.8685   -1.3382 C.3       1 <0>        -0.0186
     18 N2          5.7767   -9.5582   -0.1127 N.4       1 <0>        -0.3841
     19 C14         6.1573   -8.1406   -0.1055 C.3       1 <0>         0.0108
     20 C15         6.9869  -10.3889   -0.0541 C.3       1 <0>         0.0956
     21 C16         6.5954  -11.8386    0.0728 C.2       1 <0>         0.2243
     22 N3          6.3924  -12.6615   -0.9162 N.2       1 <0>        -0.4862
     23 C17         6.0584  -13.8758   -0.4439 C.2       1 <0>         0.3064
     24 N4          6.0481  -13.8274    0.8654 N.2       1 <0>        -0.2876
     25 O2          6.4033  -12.4997    1.2215 O.3       1 <0>        -0.0798
     26 C18         5.7521  -15.0712   -1.2684 C.ar      1 <0>        -0.0472
     27 C19         5.8033  -14.9932   -2.6587 C.ar      1 <0>        -0.0555
     28 C20         5.5176  -16.1075   -3.4209 C.ar      1 <0>        -0.0952
     29 C21         5.1802  -17.3011   -2.8066 C.ar      1 <0>        -0.0575
     30 C22         5.1276  -17.3836   -1.4259 C.ar      1 <0>        -0.0917
     31 C23         5.4180  -16.2767   -0.6547 C.ar      1 <0>        -0.0635
     32 Br1         4.7893  -18.8241   -3.8572 Br        1 <0>        -0.0205
     33 H2         -0.9599    1.9047    0.0260 H         1 <0>         0.1291
     34 H3          1.1511    3.1697    0.0081 H         1 <0>         0.1326
     35 H4          3.3033    1.9769   -0.0200 H         1 <0>         0.1305
     36 H5          1.2201   -1.7597   -0.0189 H         1 <0>         0.1191
     37 H6         -0.9262   -0.5561    0.0079 H         1 <0>         0.1273
     38 H7          2.8835   -2.7989    0.8489 H         1 <0>         0.0965
     39 H8          2.8651   -2.7894   -0.9309 H         1 <0>         0.0965
     40 H9          5.3060   -3.2253   -0.9583 H         1 <0>         0.0877
     41 H10         5.3243   -3.2348    0.8215 H         1 <0>         0.0877
     42 H11         3.4041   -5.1095   -0.0588 H         1 <0>         0.4054
     43 H12         3.1325   -6.9942   -1.2915 H         1 <0>         0.1013
     44 H13         4.6196   -7.2991   -2.2236 H         1 <0>         0.0941
     45 H14         3.1231   -9.3250   -0.4966 H         1 <0>         0.0917
     46 H15         3.1775   -9.2955   -2.2763 H         1 <0>         0.1224
     47 H16         4.8007  -10.9336   -1.3631 H         1 <0>         0.1321
     48 H17         5.6358   -9.6080   -2.2068 H         1 <0>         0.1422
     49 H18         6.7388   -7.9172   -0.9999 H         1 <0>         0.1476
     50 H19         6.7580   -7.9299    0.7794 H         1 <0>         0.1484
     51 H20         7.5687  -10.2480   -0.9650 H         1 <0>         0.1794
     52 H21         7.5862  -10.0975    0.8085 H         1 <0>         0.1745
     53 H22         6.0658  -14.0621   -3.1389 H         1 <0>         0.1474
     54 H23         5.5570  -16.0480   -4.4985 H         1 <0>         0.1487
     55 H24         4.8631  -18.3170   -0.9512 H         1 <0>         0.1494
     56 H25         5.3814  -16.3433    0.4227 H         1 <0>         0.1437
     57 H26         5.1980   -9.7535    0.6905 H         1 <0>         0.4279
@<TRIPOS>BOND
     1    1    6 ar
     2    1    2 ar
     3    1   33 1
     4    2    3 ar
     5    2   34 1
     6    3    4 ar
     7    3   35 1
     8    4    5 ar
     9    4    7 1
    10    5    6 ar
    11    5   36 1
    12    6   37 1
    13    7    8 1
    14    8    9 1
    15    8   38 1
    16    8   39 1
    17    9   10 1
    18    9   40 1
    19    9   41 1
    20   10   11 am
    21   10   42 1
    22   11   12 2
    23   11   13 1
    24   13   14 1
    25   13   19 1
    26   13   15 1
    27   15   16 1
    28   15   43 1
    29   15   44 1
    30   16   17 1
    31   16   45 1
    32   16   46 1
    33   17   18 1
    34   17   47 1
    35   17   48 1
    36   18   19 1
    37   18   20 1
    38   18   57 1
    39   19   49 1
    40   19   50 1
    41   20   21 1
    42   20   51 1
    43   20   52 1
    44   21   25 1
    45   21   22 2
    46   22   23 1
    47   23   24 2
    48   23   26 1
    49   24   25 1
    50   26   31 ar
    51   26   27 ar
    52   27   28 ar
    53   27   53 1
    54   28   29 ar
    55   28   54 1
    56   29   30 ar
    57   29   32 1
    58   30   31 ar
    59   30   55 1
    60   31   56 1
@<TRIPOS>MOLECULE
ZINC46560474
   66    69     0     0     0
SMALL
USER_CHARGES

@<TRIPOS>ATOM
      1 C1          0.6066    1.3405   -0.4165 C.3       1 <0>        -0.1797
      2 C2          0.0025   -0.0019    0.0004 C.3       1 <0>         0.0042
      3 H1         -1.0219    0.1505    0.3402 H         1 <0>         0.1564
      4 C3          0.8199   -0.5948    1.1190 C.2       1 <0>         0.5065
      5 O1          1.7283   -1.3580    0.8676 O.2       1 <0>        -0.5141
      6 N1          0.5415   -0.2769    2.3988 N.am      1 <0>        -0.6948
      7 C4          1.3361   -0.8533    3.4863 C.3       1 <0>         0.2397
      8 H2          2.3711   -0.9618    3.1620 H         1 <0>         0.1112
      9 C5          0.7802   -2.2053    3.8527 C.ar      1 <0>        -0.1001
     10 C6         -0.5874   -2.4039    3.8876 C.ar      1 <0>        -0.1113
     11 C7         -1.0974   -3.6440    4.2237 C.ar      1 <0>        -0.1185
     12 C8         -0.2398   -4.6856    4.5244 C.ar      1 <0>        -0.1111
     13 C9          1.1278   -4.4873    4.4886 C.ar      1 <0>        -0.1121
     14 C10         1.6378   -3.2483    4.1483 C.ar      1 <0>        -0.0990
     15 C11         1.2785    0.0557    4.6869 C.ar      1 <0>        -0.1440
     16 C12         0.0886    0.6701    5.0309 C.ar      1 <0>        -0.0721
     17 C13         0.0334    1.5042    6.1307 C.ar      1 <0>        -0.1466
     18 C14         1.1730    1.7247    6.8906 C.ar      1 <0>         0.1436
     19 C15         2.3655    1.1066    6.5435 C.ar      1 <0>        -0.2015
     20 C16         2.4144    0.2694    5.4458 C.ar      1 <0>        -0.0564
     21 O2          1.1213    2.5451    7.9727 O.3       1 <0>        -0.3131
     22 C17         2.3330    2.7258    8.7083 C.3       1 <0>         0.0236
     23 N2          0.0063   -0.9183   -1.1478 N.4       1 <0>        -0.3705
     24 C18        -0.6222   -2.1876   -0.7607 C.3       1 <0>        -0.0263
     25 C19        -0.5164   -3.1833   -1.9205 C.3       1 <0>         0.1043
     26 N3         -1.0932   -2.5619   -3.1227 N.pl3     1 <0>        -0.6224
     27 C20        -0.6365   -1.2135   -3.4931 C.3       1 <0>         0.1049
     28 C21        -0.7366   -0.3107   -2.2591 C.3       1 <0>        -0.0274
     29 C22        -2.0431   -3.2298   -3.8867 C.ar      1 <0>         0.4207
     30 C23        -2.6096   -4.4069   -3.4078 C.ar      1 <0>        -0.2317
     31 C24        -3.5535   -5.0611   -4.1784 C.ar      1 <0>         0.0207
     32 C25        -3.9007   -4.5142   -5.4069 C.ar      1 <0>        -0.2791
     33 C26        -3.2986   -3.3430   -5.8201 C.ar      1 <0>         0.2103
     34 N4         -2.4047   -2.7373   -5.0613 N.ar      1 <0>        -0.5314
     35 C27        -4.9242   -5.1931   -6.2802 C.3       1 <0>         0.5182
     36 F1         -6.1986   -4.7064   -5.9697 F         1 <0>        -0.1732
     37 F2         -4.6391   -4.9292   -7.6242 F         1 <0>        -0.1728
     38 F3         -4.8852   -6.5737   -6.0575 F         1 <0>        -0.1739
     39 H3          1.6310    1.1881   -0.7564 H         1 <0>         0.0925
     40 H4          0.0154    1.7694   -1.2256 H         1 <0>         0.0994
     41 H5          0.6038    2.0205    0.4354 H         1 <0>         0.1130
     42 H6         -0.1851    0.3335    2.5999 H         1 <0>         0.4087
     43 H7         -1.2574   -1.5901    3.6527 H         1 <0>         0.1138
     44 H8         -2.1658   -3.7989    4.2517 H         1 <0>         0.1242
     45 H9         -0.6382   -5.6543    4.7877 H         1 <0>         0.1262
     46 H10         1.7978   -5.3010    4.7238 H         1 <0>         0.1277
     47 H11         2.7063   -3.0943    4.1167 H         1 <0>         0.1241
     48 H12        -0.7982    0.4981    4.4391 H         1 <0>         0.1227
     49 H13        -0.8961    1.9845    6.3986 H         1 <0>         0.1365
     50 H14         3.2541    1.2768    7.1335 H         1 <0>         0.1356
     51 H15         3.3414   -0.2155    5.1778 H         1 <0>         0.1294
     52 H16         2.6752    1.7627    9.0871 H         1 <0>         0.0596
     53 H17         3.0949    3.1508    8.0548 H         1 <0>         0.0591
     54 H18         2.1532    3.4019    9.5443 H         1 <0>         0.1068
     55 H19        -0.1137   -2.5931    0.1140 H         1 <0>         0.1454
     56 H20        -1.6722   -2.0159   -0.5238 H         1 <0>         0.1349
     57 H21         0.5308   -3.4262   -2.1003 H         1 <0>         0.1003
     58 H22        -1.0691   -4.0904   -1.6760 H         1 <0>         0.1314
     59 H23         0.3986   -1.2575   -3.8317 H         1 <0>         0.0931
     60 H24        -1.2686   -0.8182   -4.2883 H         1 <0>         0.1413
     61 H25        -1.7832   -0.1958   -1.9768 H         1 <0>         0.1360
     62 H26        -0.3125    0.6668   -2.4885 H         1 <0>         0.1493
     63 H27        -2.3160   -4.8045   -2.4476 H         1 <0>         0.1458
     64 H28        -4.0101   -5.9768   -3.8328 H         1 <0>         0.1542
     65 H29        -3.5654   -2.9145   -6.7748 H         1 <0>         0.1762
     66 H30         0.9579   -1.0909   -1.4355 H         1 <0>         0.4313
@<TRIPOS>BOND
     1    1    2 1
     2    1   39 1
     3    1   40 1
     4    1   41 1
     5    2    3 1
     6    2    4 1
     7    2   23 1
     8    4    5 2
     9    4    6 am
    10    6    7 1
    11    6   42 1
    12    7    8 1
    13    7    9 1
    14    7   15 1
    15    9   14 ar
    16    9   10 ar
    17   10   11 ar
    18   10   43 1
    19   11   12 ar
    20   11   44 1
    21   12   13 ar
    22   12   45 1
    23   13   14 ar
    24   13   46 1
    25   14   47 1
    26   15   20 ar
    27   15   16 ar
    28   16   17 ar
    29   16   48 1
    30   17   18 ar
    31   17   49 1
    32   18   19 ar
    33   18   21 1
    34   19   20 ar
    35   19   50 1
    36   20   51 1
    37   21   22 1
    38   22   52 1
    39   22   53 1
    40   22   54 1
    41   23   28 1
    42   23   24 1
    43   23   66 1
    44   24   25 1
    45   24   55 1
    46   24   56 1
    47   25   26 1
    48   25   57 1
    49   25   58 1
    50   26   27 1
    51   26   29 1
    52   27   28 1
    53   27   59 1
    54   27   60 1
    55   28   61 1
    56   28   62 1
    57   29   34 ar
    58   29   30 ar
    59   30   31 ar
    60   30   63 1
    61   31   32 ar
    62   31   64 1
    63   32   33 ar
    64   32   35 1
    65   33   34 ar
    66   33   65 1
    67   35   36 1
    68   35   37 1
    69   35   38 1
@<TRIPOS>MOLECULE
ZINC09215853
   64    67     0     0     0
SMALL
USER_CHARGES
N-(4-chlorophenyl)-2-[1-(3,4-dimethoxyphenyl)-4a-hydroxy-1,3,4,5,6,7,8,8a-octahydroisoquinolin-2-yl]-acetamide
@<TRIPOS>ATOM
      1 C1          5.7979    5.6878   -6.4374 C.3       1 <0>         0.0203
      2 O1          6.7217    6.0771   -5.4190 O.3       1 <0>        -0.2953
      3 C2          6.1977    6.5875   -4.2725 C.ar      1 <0>         0.1321
      4 C3          4.8249    6.7110   -4.1313 C.ar      1 <0>        -0.1621
      5 C4          4.2937    7.2251   -2.9631 C.ar      1 <0>        -0.1192
      6 C5          5.1299    7.6275   -1.9383 C.ar      1 <0>        -0.1399
      7 C6          6.5005    7.5069   -2.0727 C.ar      1 <0>        -0.1467
      8 C7          7.0392    6.9871   -3.2388 C.ar      1 <0>         0.1186
      9 O2          8.3873    6.8683   -3.3728 O.3       1 <0>        -0.2948
     10 C8          9.1893    7.2991   -2.2713 C.3       1 <0>         0.0209
     11 C9          4.5458    8.1930   -0.6694 C.3       1 <0>         0.0907
     12 H1          5.2793    8.1177    0.1334 H         1 <0>         0.1505
     13 C10         4.1776    9.6616   -0.8878 C.3       1 <0>        -0.0799
     14 H2          3.4477    9.7320   -1.6942 H         1 <0>         0.1013
     15 C11         5.4274   10.4573   -1.2632 C.3       1 <0>        -0.1082
     16 C12         6.4521   10.3689   -0.1306 C.3       1 <0>        -0.1267
     17 C13         5.8446   10.9460    1.1497 C.3       1 <0>        -0.1215
     18 C14         4.5992   10.1426    1.5285 C.3       1 <0>        -0.1551
     19 C15         3.5706   10.2277    0.3985 C.3       1 <0>         0.1339
     20 C16         2.3408    9.3948    0.7757 C.3       1 <0>        -0.1735
     21 C17         2.7585    7.9325    0.9479 C.3       1 <0>        -0.0099
     22 C18         3.6298    5.9980   -0.2175 C.3       1 <0>        -0.0329
     23 C19         2.3372    5.2329   -0.0953 C.2       1 <0>         0.5039
     24 O3          1.2798    5.8268   -0.0822 O.2       1 <0>        -0.5083
     25 N1          2.3562    3.8886   -0.0005 N.am      1 <0>        -0.6444
     26 C20         1.1550    3.1701    0.0018 C.ar      1 <0>         0.1253
     27 C21         0.0702    3.6264   -0.7353 C.ar      1 <0>        -0.1026
     28 C22        -1.1141    2.9158   -0.7309 C.ar      1 <0>        -0.0902
     29 C23        -1.2219    1.7528    0.0113 C.ar      1 <0>        -0.0363
     30 C24        -0.1406    1.2931    0.7424 C.ar      1 <0>        -0.0881
     31 C25         1.0459    1.9999    0.7415 C.ar      1 <0>        -0.1186
     32 Cl1        -2.7140    0.8656    0.0198 Cl        1 <0>        -0.0510
     33 O4          3.1858   11.5897    0.2014 O.3       1 <0>        -0.5372
     34 H3          6.3459    5.2986   -7.2955 H         1 <0>         0.1116
     35 H4          5.1339    4.9152   -6.0495 H         1 <0>         0.0604
     36 H5          5.2092    6.5524   -6.7439 H         1 <0>         0.0619
     37 H6          4.1696    6.4016   -4.9321 H         1 <0>         0.1485
     38 H7          3.2233    7.3168   -2.8525 H         1 <0>         0.1221
     39 H8          7.1514    7.8175   -1.2688 H         1 <0>         0.1467
     40 H9          9.0060    8.3564   -2.0801 H         1 <0>         0.0601
     41 H10         8.9308    6.7194   -1.3851 H         1 <0>         0.0579
     42 H11        10.2426    7.1500   -2.5086 H         1 <0>         0.1110
     43 H12         5.1576   11.5005   -1.4278 H         1 <0>         0.0933
     44 H13         5.8586   10.0456   -2.1757 H         1 <0>         0.0772
     45 H14         7.3417   10.9384   -0.3998 H         1 <0>         0.0782
     46 H15         6.7235    9.3260    0.0336 H         1 <0>         0.0553
     47 H16         5.5688   11.9874    0.9838 H         1 <0>         0.0797
     48 H17         6.5745   10.8874    1.9571 H         1 <0>         0.0719
     49 H18         4.1684   10.5505    2.4430 H         1 <0>         0.0820
     50 H19         4.8748    9.1006    1.6908 H         1 <0>         0.0653
     51 H20         1.5938    9.4696   -0.0145 H         1 <0>         0.0993
     52 H21         1.9207    9.7661    1.7104 H         1 <0>         0.1177
     53 H22         1.8849    7.3333    1.2044 H         1 <0>         0.1475
     54 H23         3.4969    7.8580    1.7463 H         1 <0>         0.1320
     55 H24         4.2507    5.8044    0.6572 H         1 <0>         0.1647
     56 H25         4.1577    5.6781   -1.1159 H         1 <0>         0.1660
     57 H26         3.2024    3.4190    0.0661 H         1 <0>         0.4219
     58 H27         0.1524    4.5364   -1.3111 H         1 <0>         0.1416
     59 H28        -1.9582    3.2705   -1.3037 H         1 <0>         0.1429
     60 H29        -0.2260    0.3830    1.3176 H         1 <0>         0.1454
     61 H30         1.8882    1.6427    1.3153 H         1 <0>         0.1401
     62 H31         2.7908   12.0036    0.9810 H         1 <0>         0.3904
     63 N2          3.3208    7.4384   -0.3272 N.4       1 <0>        -0.3781
     64 H32         2.6271    7.5747   -1.0718 H         1 <0>         0.4306
@<TRIPOS>BOND
     1    1    2 1
     2    1   34 1
     3    1   35 1
     4    1   36 1
     5    2    3 1
     6    3    8 ar
     7    3    4 ar
     8    4    5 ar
     9    4   37 1
    10    5    6 ar
    11    5   38 1
    12    6    7 ar
    13    6   11 1
    14    7    8 ar
    15    7   39 1
    16    8    9 1
    17    9   10 1
    18   10   40 1
    19   10   41 1
    20   10   42 1
    21   11   12 1
    22   11   13 1
    23   11   63 1
    24   13   14 1
    25   13   19 1
    26   13   15 1
    27   15   16 1
    28   15   43 1
    29   15   44 1
    30   16   17 1
    31   16   45 1
    32   16   46 1
    33   17   18 1
    34   17   47 1
    35   17   48 1
    36   18   19 1
    37   18   49 1
    38   18   50 1
    39   19   20 1
    40   19   33 1
    41   20   21 1
    42   20   51 1
    43   20   52 1
    44   21   53 1
    45   21   54 1
    46   21   63 1
    47   22   23 1
    48   22   55 1
    49   22   56 1
    50   22   63 1
    51   23   24 2
    52   23   25 am
    53   25   26 1
    54   25   57 1
    55   26   31 ar
    56   26   27 ar
    57   27   28 ar
    58   27   58 1
    59   28   29 ar
    60   28   59 1
    61   29   30 ar
    62   29   32 1
    63   30   31 ar
    64   30   60 1
    65   31   61 1
    66   33   62 1
    67   63   64 1
@<TRIPOS>MOLECULE
ZINC20764095
   59    63     0     0     0
SMALL
USER_CHARGES
2-[(2S,4R)-6-(1,3-benzodioxol-5-yl)-2-[4-(trifluoromethyl)phenyl]-2,3,4,5-tetrahydropyrimidin-4-yl]-6-ethoxy-phenol
@<TRIPOS>ATOM
      1 C1         -2.4969   -7.9582    2.4183 C.3       1 <0>        -0.1575
      2 C2         -3.0548   -7.0996    1.2815 C.3       1 <0>         0.0493
      3 O1         -2.9766   -5.7196    1.6443 O.3       1 <0>        -0.2980
      4 C3         -3.4349   -4.8158    0.7374 C.ar      1 <0>         0.1168
      5 C4         -3.9482   -5.2479   -0.4750 C.ar      1 <0>        -0.1522
      6 C5         -4.4133   -4.3278   -1.3960 C.ar      1 <0>        -0.0941
      7 C6         -4.3730   -2.9761   -1.1082 C.ar      1 <0>        -0.1316
      8 C7         -3.8569   -2.5381    0.0972 C.ar      1 <0>        -0.2035
      9 C8         -3.3891   -3.4550    1.0247 C.ar      1 <0>         0.1631
     10 O2         -2.8867   -3.0261    2.2134 O.3       1 <0>        -0.4796
     11 C9         -3.8089   -1.0636    0.4049 C.3       1 <0>         0.0988
     12 H1         -4.0159   -0.9174    1.4753 H         1 <0>         0.1439
     13 C10        -2.4414   -0.4968    0.0049 C.3       1 <0>        -0.1590
     14 C11        -2.4999    1.0055    0.0194 C.2       1 <0>         0.2796
     15 N1         -3.5993    1.6623    0.0282 N.2       1 <0>        -0.5261
     16 C12        -4.9201    1.0461    0.0414 C.3       1 <0>         0.2615
     17 H2         -5.2922    1.0774    1.0761 H         1 <0>         0.1637
     18 N2         -4.8407   -0.3591   -0.3753 N.4       1 <0>        -0.5666
     19 C13        -5.8261    1.7935   -0.9028 C.ar      1 <0>        -0.1009
     20 C14        -6.8506    1.1280   -1.5497 C.ar      1 <0>        -0.1272
     21 C15        -7.6847    1.8146   -2.4120 C.ar      1 <0>        -0.0570
     22 C16        -7.4881    3.1646   -2.6352 C.ar      1 <0>        -0.1523
     23 C17        -6.4601    3.8289   -1.9927 C.ar      1 <0>        -0.0596
     24 C18        -5.6292    3.1434   -1.1263 C.ar      1 <0>        -0.0611
     25 C19        -8.3942    3.9120   -3.5793 C.3       1 <0>         0.5043
     26 F1         -7.8650    3.8593   -4.8733 F         1 <0>        -0.1698
     27 F2         -9.6638    3.3244   -3.5705 F         1 <0>        -0.1711
     28 F3         -8.4950    5.2462   -3.1707 F         1 <0>        -0.1696
     29 C20        -1.2320    1.7580    0.0174 C.ar      1 <0>        -0.0952
     30 C21        -0.0126    1.0758    0.0080 C.ar      1 <0>        -0.0663
     31 C22         1.1713    1.7810    0.0004 C.ar      1 <0>        -0.1077
     32 C23         1.1579    3.1692    0.0071 C.ar      1 <0>         0.0781
     33 C24        -0.0562    3.8564    0.0218 C.ar      1 <0>         0.0268
     34 C25        -1.2465    3.1552    0.0301 C.ar      1 <0>        -0.0434
     35 O3          0.2023    5.1971    0.0254 O.3       1 <0>        -0.3039
     36 C26         1.5718    5.3250   -0.4001 C.3       1 <0>         0.2066
     37 O4          2.1731    4.0802    0.0018 O.3       1 <0>        -0.2951
     38 H3         -2.5571   -9.0204    2.1390 H         1 <0>         0.0865
     39 H4         -3.0855   -7.7852    3.3313 H         1 <0>         0.0701
     40 H5         -1.4470   -7.6863    2.6019 H         1 <0>         0.0704
     41 H6         -2.4662   -7.2726    0.3685 H         1 <0>         0.0683
     42 H7         -4.1047   -7.3715    1.0979 H         1 <0>         0.0678
     43 H8         -3.9845   -6.3034   -0.7006 H         1 <0>         0.1469
     44 H9         -4.8127   -4.6658   -2.3407 H         1 <0>         0.1404
     45 H10        -4.7417   -2.2607   -1.8283 H         1 <0>         0.1197
     46 H11        -2.8510   -1.9501    2.4393 H         1 <0>         0.4225
     47 H12        -1.6786   -0.8416    0.7185 H         1 <0>         0.1448
     48 H13        -2.1817   -0.8446   -1.0059 H         1 <0>         0.1352
     49 H14        -4.5861   -0.4037   -1.4445 H         1 <0>         0.4513
     50 H15        -7.0017    0.0724   -1.3784 H         1 <0>         0.1307
     51 H16        -8.4877    1.2956   -2.9143 H         1 <0>         0.1505
     52 H17        -6.3063    4.8835   -2.1674 H         1 <0>         0.1514
     53 H18        -4.8261    3.6623   -0.6244 H         1 <0>         0.1560
     54 H19         0.0021   -0.0041    0.0020 H         1 <0>         0.1463
     55 H20         2.1127    1.2519   -0.0110 H         1 <0>         0.1492
     56 H21        -2.1869    3.6861    0.0412 H         1 <0>         0.1495
     57 H22         1.6050    5.4708   -1.4899 H         1 <0>         0.0956
     58 H23         2.0318    6.1902    0.0998 H         1 <0>         0.1439
     59 H24        -5.8166   -0.8392   -0.2105 H         1 <0>         0.4587
@<TRIPOS>BOND
     1    1    2 1
     2    1   38 1
     3    1   39 1
     4    1   40 1
     5    2    3 1
     6    2   41 1
     7    2   42 1
     8    3    4 1
     9    4    9 ar
    10    4    5 ar
    11    5    6 ar
    12    5   43 1
    13    6    7 ar
    14    6   44 1
    15    7    8 ar
    16    7   45 1
    17    8    9 ar
    18    8   11 1
    19    9   10 1
    20   10   46 1
    21   11   12 1
    22   11   18 1
    23   11   13 1
    24   13   14 1
    25   13   47 1
    26   13   48 1
    27   14   15 2
    28   14   29 1
    29   15   16 1
    30   16   17 1
    31   16   18 1
    32   16   19 1
    33   18   49 1
    34   18   59 1
    35   19   24 ar
    36   19   20 ar
    37   20   21 ar
    38   20   50 1
    39   21   22 ar
    40   21   51 1
    41   22   23 ar
    42   22   25 1
    43   23   24 ar
    44   23   52 1
    45   24   53 1
    46   25   26 1
    47   25   27 1
    48   25   28 1
    49   29   34 ar
    50   29   30 ar
    51   30   31 ar
    52   30   54 1
    53   31   32 ar
    54   31   55 1
    55   32   37 1
    56   32   33 ar
    57   33   34 ar
    58   33   35 1
    59   34   56 1
    60   35   36 1
    61   36   37 1
    62   36   57 1
    63   36   58 1
@<TRIPOS>MOLECULE
ZINC20745541
   55    58     0     0     0
SMALL
USER_CHARGES

@<TRIPOS>ATOM
      1 C1          1.7637   -4.0910    2.5709 C.3       1 <0>         0.0342
      2 O1          0.9517   -2.9152    2.5542 O.3       1 <0>        -0.3500
      3 C2         -0.3781   -3.0936    2.5125 C.2       1 <0>         0.4429
      4 O2         -0.8373   -4.2109    2.4910 O.2       1 <0>        -0.4842
      5 C3         -1.2981   -1.9002    2.4926 C.3       1 <0>         0.1819
      6 H1         -1.0862   -1.2927    1.6127 H         1 <0>         0.1355
      7 C4         -1.0766   -1.0644    3.7548 C.3       1 <0>        -0.0863
      8 C5         -1.9061    0.1914    3.6777 C.ar      1 <0>        -0.0837
      9 C6         -1.3802    1.3330    3.1022 C.ar      1 <0>        -0.1055
     10 C7         -2.1411    2.4849    3.0314 C.ar      1 <0>        -0.1102
     11 C8         -3.4281    2.4951    3.5358 C.ar      1 <0>        -0.1170
     12 C9         -3.9544    1.3533    4.1104 C.ar      1 <0>        -0.1214
     13 C10        -3.1950    0.2002    4.1773 C.ar      1 <0>        -0.1185
     14 N1         -2.6894   -2.3569    2.4472 N.am      1 <0>        -0.7142
     15 C11        -3.2623   -2.6558    1.2645 C.2       1 <0>         0.7256
     16 O3         -2.6544   -2.4647    0.2290 O.2       1 <0>        -0.5548
     17 N2         -4.5090   -3.1666    1.2296 N.am      1 <0>        -0.6217
     18 C12        -5.1071   -3.6068   -0.0396 C.3       1 <0>         0.1258
     19 C13        -6.3221   -2.7247   -0.3545 C.3       1 <0>        -0.0798
     20 C14        -7.1453   -2.5677    0.8970 C.2       1 <0>         0.0910
     21 C15        -6.7018   -2.8149    2.1483 C.2       1 <0>         0.0054
     22 N3         -7.6988   -2.5637    2.9995 N.pl3     1 <0>        -0.4593
     23 C16        -8.7485   -2.1719    2.3253 C.cat     1 <0>         0.3096
     24 N4         -8.4413   -2.1629    1.0077 N.pl3     1 <0>        -0.5021
     25 H2         -9.0322   -1.9151    0.2795 H         1 <0>         0.4689
     26 C17        -5.3036   -3.3030    2.4635 C.3       1 <0>         0.2672
     27 H3         -4.8672   -2.6939    3.2550 H         1 <0>         0.1230
     28 C18        -5.3445   -4.7478    2.8900 C.ar      1 <0>        -0.1411
     29 C19        -6.4741   -5.5079    2.6497 C.ar      1 <0>        -0.0948
     30 C20        -6.5129   -6.8332    3.0398 C.ar      1 <0>        -0.0924
     31 C21        -5.4224   -7.4017    3.6716 C.ar      1 <0>        -0.1055
     32 C22        -4.2904   -6.6437    3.9136 C.ar      1 <0>         0.0839
     33 C23        -4.2493   -5.3153    3.5170 C.ar      1 <0>         0.1007
     34 F1         -3.1430   -4.5748    3.7472 F         1 <0>        -0.1050
     35 F2         -3.2246   -7.1983    4.5314 F         1 <0>        -0.1141
     36 H4          2.8152   -3.8058    2.6048 H         1 <0>         0.1070
     37 H5          1.5206   -4.6879    3.4499 H         1 <0>         0.0620
     38 H6          1.5747   -4.6759    1.6708 H         1 <0>         0.0619
     39 H7         -1.3731   -1.6424    4.6301 H         1 <0>         0.0871
     40 H8         -0.0224   -0.7991    3.8346 H         1 <0>         0.1130
     41 H9         -0.3746    1.3249    2.7082 H         1 <0>         0.1294
     42 H10        -1.7299    3.3769    2.5825 H         1 <0>         0.1274
     43 H11        -4.0223    3.3953    3.4811 H         1 <0>         0.1232
     44 H12        -4.9598    1.3615    4.5047 H         1 <0>         0.1177
     45 H13        -3.6075   -0.6929    4.6229 H         1 <0>         0.1104
     46 H14        -3.1982   -2.4442    3.2684 H         1 <0>         0.3974
     47 H15        -4.3728   -3.5149   -0.8399 H         1 <0>         0.1283
     48 H16        -5.4242   -4.6460    0.0480 H         1 <0>         0.0888
     49 H17        -5.9845   -1.7458   -0.6949 H         1 <0>         0.1184
     50 H18        -6.9244   -3.1960   -1.1312 H         1 <0>         0.1209
     51 H19        -9.7036   -1.9005    2.7502 H         1 <0>         0.2728
     52 H20        -7.3272   -5.0654    2.1569 H         1 <0>         0.1278
     53 H21        -7.3962   -7.4254    2.8513 H         1 <0>         0.1487
     54 H22        -5.4543   -8.4372    3.9766 H         1 <0>         0.1565
     55 H23        -7.6520   -2.6567    3.9639 H         1 <0>         0.4671
@<TRIPOS>BOND
     1    1    2 1
     2    1   36 1
     3    1   37 1
     4    1   38 1
     5    2    3 1
     6    3    4 2
     7    3    5 1
     8    5    6 1
     9    5    7 1
    10    5   14 1
    11    7    8 1
    12    7   39 1
    13    7   40 1
    14    8   13 ar
    15    8    9 ar
    16    9   10 ar
    17    9   41 1
    18   10   11 ar
    19   10   42 1
    20   11   12 ar
    21   11   43 1
    22   12   13 ar
    23   12   44 1
    24   13   45 1
    25   14   15 am
    26   14   46 1
    27   15   16 2
    28   15   17 am
    29   17   26 1
    30   17   18 1
    31   18   19 1
    32   18   47 1
    33   18   48 1
    34   19   20 1
    35   19   49 1
    36   19   50 1
    37   20   24 1
    38   20   21 2
    39   21   22 1
    40   21   26 1
    41   22   23 2
    42   22   55 1
    43   23   24 1
    44   23   51 1
    45   24   25 1
    46   26   27 1
    47   26   28 1
    48   28   33 ar
    49   28   29 ar
    50   29   30 ar
    51   29   52 1
    52   30   31 ar
    53   30   53 1
    54   31   32 ar
    55   31   54 1
    56   32   33 ar
    57   32   35 1
    58   33   34 1
@<TRIPOS>MOLECULE
ZINC39666155
   74    76     0     0     0
SMALL
USER_CHARGES

@<TRIPOS>ATOM
      1 C1         -2.7069    1.0845    1.5339 C.3       1 <0>        -0.1553
      2 C2         -2.5106   -0.4261    1.3907 C.3       1 <0>        -0.1256
      3 C3         -1.4178   -0.7025    0.3560 C.3       1 <0>        -0.1208
      4 C4         -1.2215   -2.2131    0.2128 C.3       1 <0>        -0.1206
      5 C5         -0.1288   -2.4895   -0.8219 C.3       1 <0>        -0.1044
      6 C6          0.0675   -4.0001   -0.9651 C.3       1 <0>        -0.1370
      7 C7          1.1438   -4.2723   -1.9842 C.2       1 <0>         0.5462
      8 O1          1.6992   -3.3491   -2.5410 O.2       1 <0>        -0.5326
      9 N1          1.4892   -5.5418   -2.2768 N.am      1 <0>        -0.6214
     10 C8          0.9251   -6.7900   -1.7111 C.3       1 <0>         0.1158
     11 C9          0.8432   -7.7602   -2.9109 C.3       1 <0>        -0.1153
     12 H1          1.0880   -8.7746   -2.5961 H         1 <0>         0.1174
     13 C10         1.8927   -7.2409   -3.9079 C.3       1 <0>        -0.0726
     14 C11         2.5149   -6.0051   -3.2419 C.3       1 <0>         0.1060
     15 C12         1.2240   -6.8446   -5.2207 C.3       1 <0>        -0.1461
     16 C13         2.2942   -6.3855   -6.2150 C.3       1 <0>        -0.0091
     17 N2          3.2541   -7.4731   -6.4402 N.4       1 <0>        -0.5045
     18 C14         3.9596   -7.7851   -5.1914 C.3       1 <0>        -0.0100
     19 C15         2.9597   -8.3032   -4.1537 C.3       1 <0>        -0.1342
     20 C16        -0.5324   -7.7201   -3.5252 C.2       1 <0>         0.5172
     21 O2         -1.1932   -6.7048   -3.4667 O.2       1 <0>        -0.5172
     22 N3         -1.0282   -8.8124   -4.1395 N.am      1 <0>        -0.7261
     23 C17        -2.3654   -8.7734   -4.7366 C.3       1 <0>         0.1222
     24 C18        -2.6835  -10.1320   -5.3642 C.3       1 <0>         0.0741
     25 H2         -1.8988  -10.3977   -6.0725 H         1 <0>         0.0772
     26 C19        -4.0254  -10.0546   -6.0951 C.3       1 <0>        -0.1828
     27 O3         -2.7560  -11.1250   -4.3391 O.3       1 <0>        -0.3079
     28 C20        -2.5091  -12.4100   -4.7063 C.ar      1 <0>         0.1178
     29 C21        -2.3048  -12.7239   -6.0421 C.ar      1 <0>        -0.2078
     30 C22        -2.0535  -14.0307   -6.4127 C.ar      1 <0>        -0.0817
     31 C23        -2.0061  -15.0256   -5.4537 C.ar      1 <0>        -0.1165
     32 C24        -2.2098  -14.7154   -4.1218 C.ar      1 <0>        -0.0788
     33 C25        -2.4553  -13.4091   -3.7453 C.ar      1 <0>        -0.1452
     34 C26        -1.7323  -16.4505   -5.8609 C.3       1 <0>        -0.1157
     35 H3         -1.7733    1.5429    1.8602 H         1 <0>         0.0540
     36 H4         -3.0018    1.5053    0.5727 H         1 <0>         0.0537
     37 H5         -3.4853    1.2814    2.2710 H         1 <0>         0.0550
     38 H6         -2.2156   -0.8469    2.3519 H         1 <0>         0.0609
     39 H7         -3.4441   -0.8845    1.0644 H         1 <0>         0.0606
     40 H8         -1.7128   -0.2817   -0.6052 H         1 <0>         0.0621
     41 H9         -0.4843   -0.2441    0.6823 H         1 <0>         0.0625
     42 H10        -0.9266   -2.6339    1.1740 H         1 <0>         0.0629
     43 H11        -2.1551   -2.6715   -0.1135 H         1 <0>         0.0629
     44 H12        -0.4237   -2.0687   -1.7831 H         1 <0>         0.0692
     45 H13         0.8048   -2.0311   -0.4956 H         1 <0>         0.0696
     46 H14         0.3625   -4.4209   -0.0039 H         1 <0>         0.0939
     47 H15        -0.8660   -4.4585   -1.2914 H         1 <0>         0.0998
     48 H16         1.5855   -7.1913   -0.9424 H         1 <0>         0.0903
     49 H17        -0.0685   -6.6067   -1.3021 H         1 <0>         0.0985
     50 H18         2.7140   -5.2331   -3.9852 H         1 <0>         0.0870
     51 H19         3.4323   -6.2781   -2.7204 H         1 <0>         0.0831
     52 H20         0.6904   -7.7021   -5.6306 H         1 <0>         0.0933
     53 H21         0.5218   -6.0307   -5.0402 H         1 <0>         0.1236
     54 H22         1.8211   -6.1173   -7.1596 H         1 <0>         0.1382
     55 H23         2.8165   -5.5180   -5.8115 H         1 <0>         0.1349
     56 H24         2.7617   -8.2933   -6.7608 H         1 <0>         0.4270
     57 H25         4.7139   -8.5487   -5.3816 H         1 <0>         0.1403
     58 H26         4.4425   -6.8845   -4.8123 H         1 <0>         0.1333
     59 H27         3.4815   -8.5175   -3.2210 H         1 <0>         0.1223
     60 H28         2.4885   -9.2132   -4.5250 H         1 <0>         0.0968
     61 H29        -0.4996   -9.6244   -4.1862 H         1 <0>         0.4016
     62 H30        -3.1015   -8.5484   -3.9648 H         1 <0>         0.0865
     63 H31        -2.3976   -8.0015   -5.5055 H         1 <0>         0.0910
     64 H32        -4.8101   -9.7889   -5.3867 H         1 <0>         0.0759
     65 H33        -3.9701   -9.2972   -6.8769 H         1 <0>         0.0767
     66 H34        -4.2520  -11.0225   -6.5422 H         1 <0>         0.0731
     67 H35        -2.3425  -11.9473   -6.7917 H         1 <0>         0.1268
     68 H36        -1.8944  -14.2756   -7.4525 H         1 <0>         0.1251
     69 H37        -2.1726  -15.4943   -3.3746 H         1 <0>         0.1316
     70 H38        -2.6100  -13.1666   -2.7043 H         1 <0>         0.1311
     71 H39        -0.6579  -16.6336   -5.8425 H         1 <0>         0.0700
     72 H40        -2.2283  -17.1285   -5.1664 H         1 <0>         0.0687
     73 H41        -2.1125  -16.6200   -6.8682 H         1 <0>         0.0670
     74 H42         3.9227   -7.1900   -7.1409 H         1 <0>         0.4344
@<TRIPOS>BOND
     1    1    2 1
     2    1   35 1
     3    1   36 1
     4    1   37 1
     5    2    3 1
     6    2   38 1
     7    2   39 1
     8    3    4 1
     9    3   40 1
    10    3   41 1
    11    4    5 1
    12    4   42 1
    13    4   43 1
    14    5    6 1
    15    5   44 1
    16    5   45 1
    17    6    7 1
    18    6   46 1
    19    6   47 1
    20    7    8 2
    21    7    9 am
    22    9   14 1
    23    9   10 1
    24   10   11 1
    25   10   48 1
    26   10   49 1
    27   11   12 1
    28   11   13 1
    29   11   20 1
    30   13   19 1
    31   13   14 1
    32   13   15 1
    33   14   50 1
    34   14   51 1
    35   15   16 1
    36   15   52 1
    37   15   53 1
    38   16   17 1
    39   16   54 1
    40   16   55 1
    41   17   18 1
    42   17   56 1
    43   17   74 1
    44   18   19 1
    45   18   57 1
    46   18   58 1
    47   19   59 1
    48   19   60 1
    49   20   21 2
    50   20   22 am
    51   22   23 1
    52   22   61 1
    53   23   24 1
    54   23   62 1
    55   23   63 1
    56   24   25 1
    57   24   26 1
    58   24   27 1
    59   26   64 1
    60   26   65 1
    61   26   66 1
    62   27   28 1
    63   28   33 ar
    64   28   29 ar
    65   29   30 ar
    66   29   67 1
    67   30   31 ar
    68   30   68 1
    69   31   32 ar
    70   31   34 1
    71   32   33 ar
    72   32   69 1
    73   33   70 1
    74   34   71 1
    75   34   72 1
    76   34   73 1
@<TRIPOS>MOLECULE
ZINC12576372
   60    64     0     0     0
SMALL
USER_CHARGES

@<TRIPOS>ATOM
      1 C1         -0.0173    1.4248    0.0099 C.3       1 <0>         0.0216
      2 O1          0.0021   -0.0041    0.0020 O.3       1 <0>        -0.3021
      3 C2          0.6263   -0.6188    1.0422 C.ar      1 <0>         0.0954
      4 C3          0.6871   -2.0112    1.0942 C.ar      1 <0>         0.1229
      5 C4          1.3235   -2.6430    2.1538 C.ar      1 <0>        -0.1218
      6 C5          1.8983   -1.8977    3.1603 C.ar      1 <0>        -0.0716
      7 C6          1.8415   -0.5006    3.1153 C.ar      1 <0>        -0.0854
      8 C7          1.2044    0.1358    2.0435 C.ar      1 <0>        -0.1507
      9 C8          2.4539    0.2970    4.1877 C.2       1 <0>         0.2703
     10 N1          3.0515   -0.2980    5.1833 N.2       1 <0>        -0.5130
     11 C9          3.6207    0.4433    6.1800 C.ar      1 <0>         0.2224
     12 C10         3.4187    0.0760    7.4985 C.ar      1 <0>        -0.1836
     13 C11         4.0042    0.8375    8.5270 C.ar      1 <0>         0.2307
     14 N2          3.8264    0.5061    9.8030 N.ar      1 <0>        -0.4988
     15 C12         4.3725    1.2155   10.7870 C.ar      1 <0>         0.2306
     16 C13         5.1951    2.3942   10.4936 C.ar      1 <0>        -0.1391
     17 C14         5.4062    2.7744    9.1662 C.ar      1 <0>         0.1031
     18 C15         4.8151    2.0042    8.1620 C.ar      1 <0>        -0.1392
     19 C16         4.9856    2.3298    6.7997 C.ar      1 <0>        -0.0139
     20 C17         4.4063    1.5632    5.8450 C.ar      1 <0>        -0.1692
     21 C18         5.7611    3.1259   11.5589 C.ar      1 <0>        -0.0139
     22 C19         5.5414    2.7358   12.8373 C.ar      1 <0>        -0.1692
     23 C20         4.7544    1.6063   13.1348 C.ar      1 <0>         0.2224
     24 C21         4.1737    0.8509   12.1316 C.ar      1 <0>        -0.1836
     25 N3          4.5603    1.2500   14.4395 N.2       1 <0>        -0.5130
     26 C22         5.5675    1.2362   15.2688 C.2       1 <0>         0.2703
     27 C23         5.3586    0.8527   16.6726 C.ar      1 <0>        -0.0854
     28 C24         6.4367    0.8428   17.5655 C.ar      1 <0>        -0.1507
     29 C25         6.2343    0.4817   18.8826 C.ar      1 <0>         0.0954
     30 C26         4.9585    0.1276   19.3208 C.ar      1 <0>         0.1228
     31 C27         3.8889    0.1367   18.4361 C.ar      1 <0>        -0.1217
     32 C28         4.0807    0.5022   17.1214 C.ar      1 <0>        -0.0716
     33 O2          4.7621   -0.2277   20.6171 O.3       1 <0>        -0.4832
     34 O3          7.2793    0.4709   19.7528 O.3       1 <0>        -0.3021
     35 C29         8.5580    0.8443   19.2356 C.3       1 <0>         0.0216
     36 O4          0.1216   -2.7511    0.1055 O.3       1 <0>        -0.4831
     37 H1          1.0053    1.8021    0.0021 H         1 <0>         0.0580
     38 H2         -0.5445    1.7859   -0.8732 H         1 <0>         0.1077
     39 H3         -0.5275    1.7763    0.9067 H         1 <0>         0.0582
     40 H4          1.3680   -3.7214    2.1895 H         1 <0>         0.1471
     41 H5          2.3922   -2.3920    3.9838 H         1 <0>         0.1439
     42 H6          1.1618    1.2141    2.0020 H         1 <0>         0.1426
     43 H7          2.4091    1.3755    4.1514 H         1 <0>         0.1238
     44 H8          2.8162   -0.7882    7.7366 H         1 <0>         0.1618
     45 H9          6.0076    3.6380    8.9237 H         1 <0>         0.1824
     46 H10         5.5800    3.1865    6.5186 H         1 <0>         0.1636
     47 H11         4.5463    1.8186    4.8051 H         1 <0>         0.1505
     48 H12         6.3688    3.9952   11.3554 H         1 <0>         0.1636
     49 H13         5.9792    3.3028   13.6456 H         1 <0>         0.1505
     50 H14         3.5727   -0.0118   12.3785 H         1 <0>         0.1617
     51 H15         6.5546    1.5065   14.9240 H         1 <0>         0.1238
     52 H16         7.4243    1.1165   17.2248 H         1 <0>         0.1426
     53 H17         2.9030   -0.1390   18.7802 H         1 <0>         0.1471
     54 H18         3.2458    0.5135   16.4365 H         1 <0>         0.1439
     55 H19         4.5421    0.5127   21.1988 H         1 <0>         0.3983
     56 H20         8.8385    0.1626   18.4327 H         1 <0>         0.0582
     57 H21         8.5101    1.8620   18.8481 H         1 <0>         0.0580
     58 H22         9.3009    0.7933   20.0316 H         1 <0>         0.1077
     59 H23         0.7192   -2.9489   -0.6286 H         1 <0>         0.3983
     60 H24         3.2865   -0.2697   10.0208 H         1 <0>         0.4428
@<TRIPOS>BOND
     1    1    2 1
     2    1   37 1
     3    1   38 1
     4    1   39 1
     5    2    3 1
     6    3    8 ar
     7    3    4 ar
     8    4    5 ar
     9    4   36 1
    10    5    6 ar
    11    5   40 1
    12    6    7 ar
    13    6   41 1
    14    7    8 ar
    15    7    9 1
    16    8   42 1
    17    9   10 2
    18    9   43 1
    19   10   11 1
    20   11   20 ar
    21   11   12 ar
    22   12   13 ar
    23   12   44 1
    24   13   18 ar
    25   13   14 ar
    26   14   15 ar
    27   14   60 1
    28   15   24 ar
    29   15   16 ar
    30   16   17 ar
    31   16   21 ar
    32   17   18 ar
    33   17   45 1
    34   18   19 ar
    35   19   20 ar
    36   19   46 1
    37   20   47 1
    38   21   22 ar
    39   21   48 1
    40   22   23 ar
    41   22   49 1
    42   23   24 ar
    43   23   25 1
    44   24   50 1
    45   25   26 2
    46   26   27 1
    47   26   51 1
    48   27   32 ar
    49   27   28 ar
    50   28   29 ar
    51   28   52 1
    52   29   30 ar
    53   29   34 1
    54   30   31 ar
    55   30   33 1
    56   31   32 ar
    57   31   53 1
    58   32   54 1
    59   33   55 1
    60   34   35 1
    61   35   56 1
    62   35   57 1
    63   35   58 1
    64   36   59 1
@<TRIPOS>MOLECULE
ZINC08833361
   63    67     0     0     0
SMALL
USER_CHARGES
N-[[5-(1H-benzoimidazol-2-yl)-2-methyl-phenyl]thiocarbamoyl]-3-nitro-4-(1-piperidyl)benzamide
@<TRIPOS>ATOM
      1 C1          8.2912    2.0923    0.9796 C.3       1 <0>        -0.1212
      2 C2          8.3050    3.4539    0.3340 C.ar      1 <0>        -0.0680
      3 C3          9.4931    4.1522    0.2240 C.ar      1 <0>        -0.1108
      4 C4          9.5135    5.3995   -0.3660 C.ar      1 <0>        -0.0886
      5 C5          8.3320    5.9601   -0.8541 C.ar      1 <0>        -0.0262
      6 C6          7.1349    5.2535   -0.7487 C.ar      1 <0>        -0.0202
      7 C7          7.1236    4.0033   -0.1492 C.ar      1 <0>         0.1216
      8 N1          5.9239    3.2926   -0.0360 N.pl3     1 <0>        -0.6201
      9 C8          4.8029    3.9227    0.3675 C.2       1 <0>         0.4993
     10 S1          4.8746    5.5561    0.8753 S.2       1 <0>        -0.4483
     11 N2          3.6255    3.2669    0.3712 N.am      1 <0>        -0.6385
     12 C9          2.5045    3.8970    0.7746 C.2       1 <0>         0.5375
     13 O1          2.5554    5.0569    1.1352 O.2       1 <0>        -0.3858
     14 C10         1.2164    3.1796    0.7786 C.ar      1 <0>        -0.1384
     15 C11         1.1561    1.8454    0.3642 C.ar      1 <0>        -0.0330
     16 C12        -0.0374    1.1813    0.3680 C.ar      1 <0>        -0.1568
     17 C13        -1.1986    1.8300    0.7795 C.ar      1 <0>         0.1927
     18 C14        -1.1471    3.1565    1.1993 C.ar      1 <0>        -0.0308
     19 C15         0.0524    3.8318    1.1974 C.ar      1 <0>         0.0134
     20 N3         -2.3823    3.8420    1.6415 N.pl3     1 <0>         0.0249
     21 O2         -2.3375    5.0040    2.0038 O.2       1 <0>        -0.1828
     22 O3         -3.4434    3.2440    1.6430 O.3       1 <0>        -0.0899
     23 N4         -2.4113    1.1501    0.7762 N.pl3     1 <0>        -0.5003
     24 C16        -2.3916    0.0342    1.7305 C.3       1 <0>         0.0643
     25 C17        -3.7830   -0.5985    1.8064 C.3       1 <0>        -0.1171
     26 C18        -4.1878   -1.0979    0.4168 C.3       1 <0>        -0.1224
     27 C19        -4.1535    0.0739   -0.5682 C.3       1 <0>        -0.1170
     28 C20        -2.7513    0.6871   -0.5753 C.3       1 <0>         0.0623
     29 C21         8.3512    7.2973   -1.4865 C.2       1 <0>         0.3267
     30 N5          9.4644    8.0781   -1.6432 N.pl3     1 <0>        -0.5990
     31 H1         10.3943    7.8506   -1.3540 H         1 <0>         0.4277
     32 C22         9.0636    9.2387   -2.2753 C.ar      1 <0>         0.0533
     33 C23         9.7244   10.3849   -2.6953 C.ar      1 <0>        -0.1140
     34 C24         9.0158   11.3965   -3.3082 C.ar      1 <0>        -0.0984
     35 C25         7.6475   11.2767   -3.5070 C.ar      1 <0>        -0.1278
     36 C26         6.9797   10.1567   -3.1008 C.ar      1 <0>        -0.0616
     37 C27         7.6772    9.1170   -2.4771 C.ar      1 <0>         0.0493
     38 N6          7.3040    7.9145   -1.9758 N.2       1 <0>        -0.4699
     39 H2          8.4595    1.3285    0.2204 H         1 <0>         0.0772
     40 H3          9.0794    2.0381    1.7305 H         1 <0>         0.0790
     41 H4          7.3246    1.9254    1.4549 H         1 <0>         0.0633
     42 H5         10.4082    3.7202    0.6013 H         1 <0>         0.1375
     43 H6         10.4436    5.9420   -0.4498 H         1 <0>         0.1254
     44 H7          6.2185    5.6805   -1.1286 H         1 <0>         0.1552
     45 H8          5.8989    2.3464   -0.2478 H         1 <0>         0.4076
     46 H9          3.5849    2.3415    0.0834 H         1 <0>         0.4077
     47 H10         2.0539    1.3399    0.0404 H         1 <0>         0.1409
     48 H11        -0.0812    0.1511    0.0468 H         1 <0>         0.1523
     49 H12         0.0944    4.8622    1.5180 H         1 <0>         0.1741
     50 H13        -1.6703   -0.7134    1.4003 H         1 <0>         0.0425
     51 H14        -2.1063    0.4036    2.7155 H         1 <0>         0.0769
     52 H15        -4.5025    0.1449    2.1498 H         1 <0>         0.0824
     53 H16        -3.7648   -1.4364    2.5033 H         1 <0>         0.0726
     54 H17        -5.1959   -1.5103    0.4573 H         1 <0>         0.0703
     55 H18        -3.4906   -1.8693    0.0896 H         1 <0>         0.0584
     56 H19        -4.8788    0.8279   -0.2621 H         1 <0>         0.0818
     57 H20        -4.3993   -0.2837   -1.5680 H         1 <0>         0.0727
     58 H21        -2.7274    1.5308   -1.2650 H         1 <0>         0.0775
     59 H22        -2.0284   -0.0636   -0.8946 H         1 <0>         0.0426
     60 H23        10.7891   10.4836   -2.5432 H         1 <0>         0.1236
     61 H24         9.5291   12.2886   -3.6356 H         1 <0>         0.1312
     62 H25         7.1052   12.0772   -3.9882 H         1 <0>         0.1307
     63 H26         5.9147   10.0741   -3.2606 H         1 <0>         0.1304
@<TRIPOS>BOND
     1    1    2 1
     2    1   39 1
     3    1   40 1
     4    1   41 1
     5    2    7 ar
     6    2    3 ar
     7    3    4 ar
     8    3   42 1
     9    4    5 ar
    10    4   43 1
    11    5    6 ar
    12    5   29 1
    13    6    7 ar
    14    6   44 1
    15    7    8 1
    16    8    9 1
    17    8   45 1
    18    9   10 2
    19    9   11 1
    20   11   12 am
    21   11   46 1
    22   12   13 2
    23   12   14 1
    24   14   19 ar
    25   14   15 ar
    26   15   16 ar
    27   15   47 1
    28   16   17 ar
    29   16   48 1
    30   17   18 ar
    31   17   23 1
    32   18   19 ar
    33   18   20 1
    34   19   49 1
    35   20   21 2
    36   20   22 1
    37   23   28 1
    38   23   24 1
    39   24   25 1
    40   24   50 1
    41   24   51 1
    42   25   26 1
    43   25   52 1
    44   25   53 1
    45   26   27 1
    46   26   54 1
    47   26   55 1
    48   27   28 1
    49   27   56 1
    50   27   57 1
    51   28   58 1
    52   28   59 1
    53   29   38 2
    54   29   30 1
    55   30   31 1
    56   30   32 1
    57   32   37 ar
    58   32   33 ar
    59   33   34 ar
    60   33   60 1
    61   34   35 ar
    62   34   61 1
    63   35   36 ar
    64   35   62 1
    65   36   37 ar
    66   36   63 1
    67   37   38 1
@<TRIPOS>MOLECULE
ZINC13353907
   62    65     0     0     0
SMALL
USER_CHARGES
N-[5-[(3,4,5-trimethoxyphenyl)carbamoylamino]-1,3-benzothiazol-2-yl]cyclohexanecarboxamide
@<TRIPOS>ATOM
      1 C1          2.7452    3.9157    0.2750 C.3       1 <0>         0.0240
      2 O1          1.9337    4.2780   -0.8441 O.3       1 <0>        -0.2987
      3 C2          1.0736    3.3352   -1.3140 C.ar      1 <0>         0.1687
      4 C3          1.0133    2.0891   -0.7098 C.ar      1 <0>        -0.2601
      5 C4          0.1358    1.1265   -1.1895 C.ar      1 <0>         0.2346
      6 C5         -0.6782    1.4089   -2.2778 C.ar      1 <0>        -0.2330
      7 C6         -0.6231    2.6562   -2.8799 C.ar      1 <0>         0.1686
      8 C7          0.2552    3.6206   -2.4003 C.ar      1 <0>         0.0147
      9 O2          0.3134    4.8446   -2.9941 O.3       1 <0>        -0.3107
     10 C8          1.2427    5.0009   -4.0684 C.3       1 <0>         0.0345
     11 O3         -1.4245    2.9344   -3.9428 O.3       1 <0>        -0.2990
     12 C9         -2.3026    1.8963   -4.3825 C.3       1 <0>         0.0243
     13 N1          0.0759   -0.1329   -0.5785 N.am      1 <0>        -0.6788
     14 C10        -1.1013   -0.7831   -0.4889 C.2       1 <0>         0.7083
     15 O4         -2.0950   -0.3163   -1.0115 O.2       1 <0>        -0.5491
     16 N2         -1.1770   -1.9508    0.1800 N.am      1 <0>        -0.6799
     17 C11        -2.3768   -2.6747    0.1923 C.ar      1 <0>         0.1768
     18 C12        -3.5883   -1.9873    0.2159 C.ar      1 <0>        -0.1000
     19 C13        -4.7708   -2.7024    0.2224 C.ar      1 <0>        -0.0397
     20 C14        -4.7352   -4.0748    0.2171 C.ar      1 <0>        -0.1917
     21 C15        -3.5274   -4.8088    0.1991 C.ar      1 <0>         0.1229
     22 C16        -2.3343   -4.0501    0.1865 C.ar      1 <0>        -0.1000
     23 N3         -3.6595   -6.1530    0.1957 N.2       1 <0>        -0.5472
     24 C17        -4.8300   -6.7470    0.2082 C.2       1 <0>         0.3600
     25 S1         -5.9598   -5.3623    0.2277 S.3       1 <0>         0.1046
     26 N4         -5.1167   -8.1025    0.2071 N.am      1 <0>        -0.6113
     27 C18        -6.3980   -8.5203    0.2226 C.2       1 <0>         0.5198
     28 O5         -7.2999   -7.7098    0.2375 O.2       1 <0>        -0.4875
     29 C19        -6.7098   -9.9947    0.2213 C.3       1 <0>        -0.0959
     30 C20        -6.1264  -10.6383   -1.0381 C.3       1 <0>        -0.1157
     31 C21        -6.4430  -12.1352   -1.0394 C.3       1 <0>        -0.1177
     32 C22        -7.9596  -12.3357   -1.0199 C.3       1 <0>        -0.1249
     33 C23        -8.5431  -11.6921    0.2395 C.3       1 <0>        -0.1201
     34 C24        -8.2265  -10.1952    0.2408 C.3       1 <0>        -0.1024
     35 H1          3.3652    3.0587    0.0120 H         1 <0>         0.0570
     36 H2          3.3836    4.7560    0.5480 H         1 <0>         0.1041
     37 H3          2.1056    3.6562    1.1187 H         1 <0>         0.0583
     38 H4          1.6495    1.8670    0.1341 H         1 <0>         0.1389
     39 H5         -1.3575    0.6578   -2.6531 H         1 <0>         0.1565
     40 H6          0.9972    4.2997   -4.8661 H         1 <0>         0.0439
     41 H7          1.1878    6.0201   -4.4509 H         1 <0>         0.0923
     42 H8          2.2518    4.8020   -3.7077 H         1 <0>         0.0436
     43 H9         -1.7169    1.0255   -4.6772 H         1 <0>         0.0556
     44 H10        -2.9769    1.6228   -3.5710 H         1 <0>         0.0641
     45 H11        -2.8837    2.2486   -5.2347 H         1 <0>         0.1033
     46 H12         0.8816   -0.5369   -0.2199 H         1 <0>         0.4117
     47 H13        -0.4009   -2.2900    0.6528 H         1 <0>         0.4111
     48 H14        -3.6033   -0.9074    0.2250 H         1 <0>         0.1561
     49 H15        -5.7182   -2.1842    0.2367 H         1 <0>         0.1387
     50 H16        -1.3798   -4.5553    0.1726 H         1 <0>         0.1352
     51 H17        -4.3953   -8.7508    0.1951 H         1 <0>         0.4279
     52 H18        -6.2705  -10.4597    1.1039 H         1 <0>         0.1099
     53 H19        -6.5657  -10.1733   -1.9207 H         1 <0>         0.0735
     54 H20        -5.0459  -10.4954   -1.0520 H         1 <0>         0.0692
     55 H21        -6.0036  -12.6002   -0.1569 H         1 <0>         0.0672
     56 H22        -6.0273  -12.5937   -1.9367 H         1 <0>         0.0699
     57 H23        -8.1852  -13.4021   -1.0208 H         1 <0>         0.0661
     58 H24        -8.3990  -11.8707   -1.9025 H         1 <0>         0.0646
     59 H25        -8.1038  -12.1571    1.1221 H         1 <0>         0.0649
     60 H26        -9.6236  -11.8349    0.2534 H         1 <0>         0.0699
     61 H27        -8.6421   -9.7367    1.1381 H         1 <0>         0.0741
     62 H28        -8.6658   -9.7302   -0.6417 H         1 <0>         0.0744
@<TRIPOS>BOND
     1    1    2 1
     2    1   35 1
     3    1   36 1
     4    1   37 1
     5    2    3 1
     6    3    8 ar
     7    3    4 ar
     8    4    5 ar
     9    4   38 1
    10    5    6 ar
    11    5   13 1
    12    6    7 ar
    13    6   39 1
    14    7    8 ar
    15    7   11 1
    16    8    9 1
    17    9   10 1
    18   10   40 1
    19   10   41 1
    20   10   42 1
    21   11   12 1
    22   12   43 1
    23   12   44 1
    24   12   45 1
    25   13   14 am
    26   13   46 1
    27   14   15 2
    28   14   16 am
    29   16   17 1
    30   16   47 1
    31   17   22 ar
    32   17   18 ar
    33   18   19 ar
    34   18   48 1
    35   19   20 ar
    36   19   49 1
    37   20   25 1
    38   20   21 ar
    39   21   22 ar
    40   21   23 1
    41   22   50 1
    42   23   24 2
    43   24   25 1
    44   24   26 1
    45   26   27 am
    46   26   51 1
    47   27   28 2
    48   27   29 1
    49   29   34 1
    50   29   30 1
    51   29   52 1
    52   30   31 1
    53   30   53 1
    54   30   54 1
    55   31   32 1
    56   31   55 1
    57   31   56 1
    58   32   33 1
    59   32   57 1
    60   32   58 1
    61   33   34 1
    62   33   59 1
    63   33   60 1
    64   34   61 1
    65   34   62 1
@<TRIPOS>MOLECULE
ZINC22122709
   61    65     0     0     0
SMALL
USER_CHARGES
2-[[4-amino-5-(2-methyl-3-furyl)-1,2,4-triazol-3-yl]sulfanyl]-N-[5-(2,5-dimethylphenyl)-2-phenyl-pyrazol-3-yl]acetamide
@<TRIPOS>ATOM
      1 C1         -8.6750    1.1025    0.0959 C.3       1 <0>        -0.1161
      2 C2         -8.2931   -0.3553    0.0831 C.ar      1 <0>        -0.0949
      3 C3         -9.2777   -1.3271    0.0870 C.ar      1 <0>        -0.1033
      4 C4         -8.9343   -2.6667    0.0753 C.ar      1 <0>        -0.1228
      5 C5         -7.6058   -3.0412    0.0596 C.ar      1 <0>        -0.0557
      6 C6         -6.6101   -2.0668    0.0555 C.ar      1 <0>        -0.0242
      7 C7         -6.9618   -0.7184    0.0727 C.ar      1 <0>        -0.0852
      8 C8         -5.1802   -2.4633    0.0391 C.2       1 <0>         0.1461
      9 C9         -4.0801   -1.5850    0.0385 C.2       1 <0>        -0.2560
     10 C10        -2.9483   -2.3367    0.0177 C.2       1 <0>         0.3198
     11 N1         -3.3217   -3.6464    0.0142 N.pl3     1 <0>        -0.3417
     12 N2         -4.7213   -3.6973    0.0278 N.2       1 <0>        -0.2696
     13 C11        -2.4577   -4.7490   -0.0008 C.ar      1 <0>         0.1565
     14 C12        -1.2635   -4.6875   -0.7068 C.ar      1 <0>        -0.1539
     15 C13        -0.4114   -5.7744   -0.7154 C.ar      1 <0>        -0.0888
     16 C14        -0.7516   -6.9270   -0.0313 C.ar      1 <0>        -0.1223
     17 C15        -1.9426   -6.9932    0.6684 C.ar      1 <0>        -0.0917
     18 C16        -2.7963   -5.9077    0.6855 C.ar      1 <0>        -0.1109
     19 N3         -1.6400   -1.8540    0.0078 N.am      1 <0>        -0.6588
     20 C17        -1.4117   -0.5257    0.0127 C.2       1 <0>         0.5441
     21 O1         -2.3442    0.2499    0.0258 O.2       1 <0>        -0.4905
     22 C18         0.0021   -0.0041    0.0020 C.3       1 <0>        -0.1445
     23 S1         -0.0225    1.8057    0.0120 S.3       1 <0>         0.0863
     24 C19         1.7084    2.1353   -0.0028 C.2       1 <0>         0.1128
     25 N4          2.6712    1.2427   -0.0172 N.2       1 <0>        -0.2796
     26 N5          3.8155    1.8274   -0.0248 N.2       1 <0>        -0.2619
     27 C20         3.6538    3.1299   -0.0157 C.2       1 <0>         0.2440
     28 N6          2.2993    3.3683   -0.0073 N.pl3     1 <0>        -0.2066
     29 N7          1.6749    4.5831   -0.0014 N.3       1 <0>        -0.7634
     30 C21         4.7258    4.1489   -0.0202 C.2       1 <0>        -0.1331
     31 C22         4.5619    5.6081   -0.0101 C.2       1 <0>        -0.2082
     32 C23         5.8034    6.1207   -0.0183 C.2       1 <0>        -0.0151
     33 O2          6.6921    5.1157   -0.0322 O.3       1 <0>        -0.1710
     34 C24         6.0682    3.9288   -0.0284 C.2       1 <0>         0.0653
     35 C25         6.7401    2.5799   -0.0355 C.3       1 <0>        -0.0786
     36 C26        -7.2332   -4.5014    0.0473 C.3       1 <0>        -0.1546
     37 H1         -9.7711    1.1943    0.1030 H         1 <0>         0.0660
     38 H2         -8.2715    1.5951   -0.8011 H         1 <0>         0.0706
     39 H3         -8.2611    1.5821    0.9952 H         1 <0>         0.0706
     40 H4        -10.3184   -1.0385    0.0990 H         1 <0>         0.1241
     41 H5         -9.7070   -3.4213    0.0788 H         1 <0>         0.1253
     42 H6         -6.1939    0.0410    0.0741 H         1 <0>         0.1295
     43 H7         -4.1272   -0.5061    0.0499 H         1 <0>         0.1809
     44 H8         -0.9993   -3.7892   -1.2450 H         1 <0>         0.1276
     45 H9          0.5198   -5.7256   -1.2603 H         1 <0>         0.1365
     46 H10        -0.0857   -7.7772   -0.0432 H         1 <0>         0.1321
     47 H11        -2.2055   -7.8947    1.2017 H         1 <0>         0.1348
     48 H12        -3.7261   -5.9598    1.2325 H         1 <0>         0.1356
     49 H13        -0.7943   -2.5574   -0.0040 H         1 <0>         0.4411
     50 H14         0.5341   -0.3685    0.8932 H         1 <0>         0.1366
     51 H15         0.5170   -0.3588   -0.9030 H         1 <0>         0.1364
     52 H16         2.2707    5.5078   -0.0061 H         1 <0>         0.4431
     53 H17         0.5763    4.6368    0.0080 H         1 <0>         0.4471
     54 H18         3.6322    6.1575    0.0020 H         1 <0>         0.1493
     55 H19         6.0471    7.1729   -0.0140 H         1 <0>         0.2122
     56 H20         7.8319    2.7141   -0.0414 H         1 <0>         0.0800
     57 H21         6.4343    2.0227   -0.9333 H         1 <0>         0.0979
     58 H22         6.4446    2.0183    0.8630 H         1 <0>         0.0979
     59 H23        -6.1377   -4.6002    0.0356 H         1 <0>         0.1208
     60 H24        -7.6541   -4.9797   -0.8494 H         1 <0>         0.0661
     61 H25        -7.6358   -4.9901    0.9468 H         1 <0>         0.0661
@<TRIPOS>BOND
     1    1    2 1
     2    1   37 1
     3    1   38 1
     4    1   39 1
     5    2    7 ar
     6    2    3 ar
     7    3    4 ar
     8    3   40 1
     9    4    5 ar
    10    4   41 1
    11    5    6 ar
    12    5   36 1
    13    6    7 ar
    14    6    8 1
    15    7   42 1
    16    8   12 2
    17    8    9 1
    18    9   10 2
    19    9   43 1
    20   10   11 1
    21   10   19 1
    22   11   12 1
    23   11   13 1
    24   13   18 ar
    25   13   14 ar
    26   14   15 ar
    27   14   44 1
    28   15   16 ar
    29   15   45 1
    30   16   17 ar
    31   16   46 1
    32   17   18 ar
    33   17   47 1
    34   18   48 1
    35   19   20 am
    36   19   49 1
    37   20   21 2
    38   20   22 1
    39   22   23 1
    40   22   50 1
    41   22   51 1
    42   23   24 1
    43   24   28 1
    44   24   25 2
    45   25   26 1
    46   26   27 2
    47   27   28 1
    48   27   30 1
    49   28   29 1
    50   29   52 1
    51   29   53 1
    52   30   34 2
    53   30   31 1
    54   31   32 2
    55   31   54 1
    56   32   33 1
    57   32   55 1
    58   33   34 1
    59   34   35 1
    60   35   56 1
    61   35   57 1
    62   35   58 1
    63   36   59 1
    64   36   60 1
    65   36   61 1
@<TRIPOS>MOLECULE
ZINC35729437
   55    58     0     0     0
SMALL
USER_CHARGES

@<TRIPOS>ATOM
      1 C1         -3.9144   -0.8353    0.6895 C.3       1 <0>        -0.1815
      2 C2         -2.4875   -0.2903    0.7774 C.3       1 <0>        -0.1218
      3 C3         -1.6084   -0.9928   -0.2592 C.3       1 <0>        -0.1027
      4 H1         -1.7229   -2.0723   -0.1610 H         1 <0>         0.0864
      5 C4         -0.1446   -0.6121   -0.0286 C.3       1 <0>        -0.1411
      6 C5         -2.0325   -0.5607   -1.6644 C.3       1 <0>         0.1568
      7 H2         -1.3368   -0.9713   -2.3962 H         1 <0>         0.1348
      8 C6         -3.4212   -1.0720   -1.9494 C.2       1 <0>         0.5176
      9 O1         -4.3187   -0.2908   -2.1842 O.2       1 <0>        -0.4575
     10 N1         -3.6658   -2.3974   -1.9434 N.am      1 <0>        -0.6080
     11 C7         -4.9191   -2.8743   -2.3082 C.2       1 <0>         0.2857
     12 N2         -6.0023   -2.2143   -2.6969 N.2       1 <0>        -0.2709
     13 N3         -7.0736   -2.8086   -2.9966 N.2       1 <0>        -0.2434
     14 C8         -7.1811   -4.1306   -2.9411 C.2       1 <0>         0.1019
     15 S1         -5.5296   -4.5553   -2.3952 S.3       1 <0>         0.0144
     16 C9         -8.3339   -5.0034   -3.2478 C.ar      1 <0>        -0.0046
     17 C10        -8.2192   -6.3878   -3.1108 C.ar      1 <0>        -0.0766
     18 C11        -9.2960   -7.2006   -3.3969 C.ar      1 <0>        -0.0974
     19 C12       -10.4952   -6.6471   -3.8212 C.ar      1 <0>         0.0573
     20 C13       -10.6161   -5.2651   -3.9601 C.ar      1 <0>         0.0354
     21 C14        -9.5415   -4.4450   -3.6695 C.ar      1 <0>        -0.0523
     22 O2        -11.8814   -4.9789   -4.3860 O.3       1 <0>        -0.3024
     23 C15       -12.4042   -6.2188   -4.8980 C.3       1 <0>         0.2119
     24 O3        -11.6851   -7.2244   -4.1600 O.3       1 <0>        -0.3035
     25 N4         -2.0236    0.9018   -1.7491 N.am      1 <0>        -0.7184
     26 C16        -0.9241    1.5446   -2.1899 C.2       1 <0>         0.7166
     27 O4          0.0263    0.9094   -2.6043 O.2       1 <0>        -0.5637
     28 N5         -0.8780    2.8914   -2.1712 N.am      1 <0>        -0.6770
     29 C17         0.2132    3.5634   -2.7396 C.ar      1 <0>         0.1303
     30 C18         0.9387    2.9696   -3.7629 C.ar      1 <0>        -0.0733
     31 C19         2.0135    3.6333   -4.3223 C.ar      1 <0>        -0.1377
     32 C20         2.3684    4.8905   -3.8630 C.ar      1 <0>         0.1111
     33 C21         1.6474    5.4860   -2.8419 C.ar      1 <0>        -0.1681
     34 C22         0.5668    4.8280   -2.2830 C.ar      1 <0>         0.0971
     35 F1         -0.1408    5.4111   -1.2909 F         1 <0>        -0.1288
     36 F2          3.4202    5.5369   -4.4117 F         1 <0>        -0.1302
     37 H3         -4.4624   -0.5662    1.5925 H         1 <0>         0.0611
     38 H4         -4.4139   -0.4074   -0.1797 H         1 <0>         0.0712
     39 H5         -3.8835   -1.9206    0.5931 H         1 <0>         0.0518
     40 H6         -2.4953    0.7818    0.5805 H         1 <0>         0.0680
     41 H7         -2.0894   -0.4735    1.7754 H         1 <0>         0.0726
     42 H8          0.1877   -1.0101    0.9301 H         1 <0>         0.0612
     43 H9          0.4693   -1.0284   -0.8273 H         1 <0>         0.0679
     44 H10        -0.0479    0.4736   -0.0244 H         1 <0>         0.0557
     45 H11        -2.9670   -3.0183   -1.6845 H         1 <0>         0.4316
     46 H12        -7.2871   -6.8224   -2.7810 H         1 <0>         0.1433
     47 H13        -9.2053   -8.2715   -3.2906 H         1 <0>         0.1480
     48 H14        -9.6351   -3.3741   -3.7727 H         1 <0>         0.1517
     49 H15       -13.4741   -6.2928   -4.7033 H         1 <0>         0.1371
     50 H16       -12.2011   -6.3085   -5.9652 H         1 <0>         0.0901
     51 H17        -2.8091    1.4075   -1.4880 H         1 <0>         0.4108
     52 H18        -1.5998    3.3958   -1.7645 H         1 <0>         0.4142
     53 H19         0.6633    1.9888   -4.1216 H         1 <0>         0.1656
     54 H20         2.5778    3.1709   -5.1186 H         1 <0>         0.1479
     55 H21         1.9260    6.4664   -2.4849 H         1 <0>         0.1536
@<TRIPOS>BOND
     1    1    2 1
     2    1   37 1
     3    1   38 1
     4    1   39 1
     5    2    3 1
     6    2   40 1
     7    2   41 1
     8    3    4 1
     9    3    5 1
    10    3    6 1
    11    5   42 1
    12    5   43 1
    13    5   44 1
    14    6    7 1
    15    6    8 1
    16    6   25 1
    17    8    9 2
    18    8   10 am
    19   10   11 1
    20   10   45 1
    21   11   15 1
    22   11   12 2
    23   12   13 1
    24   13   14 2
    25   14   15 1
    26   14   16 1
    27   16   21 ar
    28   16   17 ar
    29   17   18 ar
    30   17   46 1
    31   18   19 ar
    32   18   47 1
    33   19   24 1
    34   19   20 ar
    35   20   21 ar
    36   20   22 1
    37   21   48 1
    38   22   23 1
    39   23   24 1
    40   23   49 1
    41   23   50 1
    42   25   26 am
    43   25   51 1
    44   26   27 2
    45   26   28 am
    46   28   29 1
    47   28   52 1
    48   29   34 ar
    49   29   30 ar
    50   30   31 ar
    51   30   53 1
    52   31   32 ar
    53   31   54 1
    54   32   33 ar
    55   32   36 1
    56   33   34 ar
    57   33   55 1
    58   34   35 1
@<TRIPOS>MOLECULE
ZINC39324902
   60    64     0     0     0
SMALL
USER_CHARGES

@<TRIPOS>ATOM
      1 C1          0.6267    0.3471   -1.1387 C.3       1 <0>         0.0241
      2 O1          0.0752   -0.0312    0.1241 O.3       1 <0>        -0.3124
      3 C2         -1.1342   -0.6503    0.1085 C.ar      1 <0>         0.1474
      4 C3         -1.7725   -0.8927   -1.1006 C.ar      1 <0>        -0.2060
      5 C4         -2.9998   -1.5206   -1.1204 C.ar      1 <0>        -0.0521
      6 C5         -3.6001   -1.9130    0.0765 C.ar      1 <0>        -0.0825
      7 C6         -2.9554   -1.6681    1.2896 C.ar      1 <0>        -0.0446
      8 C7         -1.7261   -1.0441    1.3012 C.ar      1 <0>        -0.1506
      9 C8         -4.9173   -2.5867    0.0595 C.2       1 <0>         0.1873
     10 C9         -5.2570   -3.7053    0.7444 C.2       1 <0>        -0.2520
     11 C10        -6.6003   -4.0084    0.4478 C.2       1 <0>         0.2708
     12 N1         -7.0497   -3.1100   -0.3817 N.2       1 <0>        -0.2516
     13 N2         -6.0200   -2.1934   -0.6452 N.pl3     1 <0>        -0.4590
     14 H1         -6.0798   -1.4191   -1.2263 H         1 <0>         0.4509
     15 O2         -7.2333   -5.0833    0.9914 O.3       1 <0>        -0.2111
     16 C11        -6.6326   -5.6987    2.0291 C.2       1 <0>         0.4422
     17 C12        -5.3504   -5.4981    2.3991 C.2       1 <0>        -0.2654
     18 C13        -4.4271   -4.5487    1.6779 C.3       1 <0>         0.1263
     19 H2         -3.9204   -3.9085    2.4000 H         1 <0>         0.0936
     20 C14        -3.4093   -5.3306    0.8880 C.ar      1 <0>        -0.0658
     21 C15        -3.8219   -6.1615   -0.1371 C.ar      1 <0>        -0.0954
     22 C16        -2.8922   -6.8808   -0.8646 C.ar      1 <0>        -0.1710
     23 C17        -1.5434   -6.7696   -0.5673 C.ar      1 <0>         0.0986
     24 C18        -1.1281   -5.9330    0.4642 C.ar      1 <0>         0.1047
     25 C19        -2.0648   -5.2111    1.1863 C.ar      1 <0>        -0.1603
     26 O3          0.1946   -5.8205    0.7597 O.3       1 <0>        -0.2968
     27 C20         0.5476   -4.9433    1.8311 C.3       1 <0>         0.1013
     28 C21         2.0438   -4.9475    2.0115 C.ar      1 <0>        -0.0941
     29 C22         2.6345   -5.8607    2.8647 C.ar      1 <0>        -0.0945
     30 C23         4.0069   -5.8645    3.0302 C.ar      1 <0>        -0.1232
     31 C24         4.7886   -4.9554    2.3421 C.ar      1 <0>        -0.1099
     32 C25         4.1979   -4.0428    1.4882 C.ar      1 <0>        -0.1237
     33 C26         2.8259   -4.0418    1.3194 C.ar      1 <0>        -0.0926
     34 O4         -0.6276   -7.4769   -1.2818 O.3       1 <0>        -0.3064
     35 C27        -1.1264   -8.3158   -2.3256 C.3       1 <0>         0.0268
     36 C28        -4.8438   -6.2193    3.5278 C.1       1 <0>         0.2713
     37 N3         -4.4420   -6.7914    4.4232 N.1       1 <0>        -0.4411
     38 N4         -7.3763   -6.5914    2.7599 N.pl3     1 <0>        -0.8310
     39 H3          1.5915    0.8302   -0.9838 H         1 <0>         0.1035
     40 H4          0.7599   -0.5402   -1.7576 H         1 <0>         0.0585
     41 H5         -0.0505    1.0400   -1.6380 H         1 <0>         0.0579
     42 H6         -1.3072   -0.5887   -2.0266 H         1 <0>         0.1341
     43 H7         -3.4960   -1.7082   -2.0611 H         1 <0>         0.1274
     44 H8         -3.4171   -1.9704    2.2179 H         1 <0>         0.1375
     45 H9         -1.2248   -0.8575    2.2394 H         1 <0>         0.1388
     46 H10        -4.8729   -6.2490   -0.3698 H         1 <0>         0.1190
     47 H11        -3.2172   -7.5297   -1.6644 H         1 <0>         0.1331
     48 H12        -1.7448   -4.5582    1.9849 H         1 <0>         0.1324
     49 H13         0.2125   -3.9325    1.5985 H         1 <0>         0.0708
     50 H14         0.0699   -5.2819    2.7504 H         1 <0>         0.0693
     51 H15         2.0238   -6.5709    3.4022 H         1 <0>         0.1235
     52 H16         4.4684   -6.5775    3.6973 H         1 <0>         0.1249
     53 H17         5.8608   -4.9579    2.4719 H         1 <0>         0.1237
     54 H18         4.8086   -3.3323    0.9509 H         1 <0>         0.1243
     55 H19         2.3648   -3.3312    0.6495 H         1 <0>         0.1226
     56 H20        -1.8043   -9.0574   -1.9030 H         1 <0>         0.0542
     57 H21        -1.6615   -7.7084   -3.0554 H         1 <0>         0.0537
     58 H22        -0.2937   -8.8216   -2.8144 H         1 <0>         0.0994
     59 H23        -8.3015   -6.7608    2.5226 H         1 <0>         0.4120
     60 H24        -6.9768   -7.0528    3.5138 H         1 <0>         0.4268
@<TRIPOS>BOND
     1    1    2 1
     2    1   39 1
     3    1   40 1
     4    1   41 1
     5    2    3 1
     6    3    8 ar
     7    3    4 ar
     8    4    5 ar
     9    4   42 1
    10    5    6 ar
    11    5   43 1
    12    6    7 ar
    13    6    9 1
    14    7    8 ar
    15    7   44 1
    16    8   45 1
    17    9   13 1
    18    9   10 2
    19   10   18 1
    20   10   11 1
    21   11   12 2
    22   11   15 1
    23   12   13 1
    24   13   14 1
    25   15   16 1
    26   16   17 2
    27   16   38 1
    28   17   18 1
    29   17   36 1
    30   18   19 1
    31   18   20 1
    32   20   25 ar
    33   20   21 ar
    34   21   22 ar
    35   21   46 1
    36   22   23 ar
    37   22   47 1
    38   23   24 ar
    39   23   34 1
    40   24   25 ar
    41   24   26 1
    42   25   48 1
    43   26   27 1
    44   27   28 1
    45   27   49 1
    46   27   50 1
    47   28   33 ar
    48   28   29 ar
    49   29   30 ar
    50   29   51 1
    51   30   31 ar
    52   30   52 1
    53   31   32 ar
    54   31   53 1
    55   32   33 ar
    56   32   54 1
    57   33   55 1
    58   34   35 1
    59   35   56 1
    60   35   57 1
    61   35   58 1
    62   36   37 3
    63   38   59 1
    64   38   60 1
@<TRIPOS>MOLECULE
ZINC08972200
   63    67     0     0     0
SMALL
USER_CHARGES
ethyl 4-(benzyl-oxo-BLAHyl)carbonylaminobenzoate
@<TRIPOS>ATOM
      1 C1          6.9064   -4.6459   -1.2117 C.3       1 <0>        -0.1539
      2 C2          6.7772   -3.8236    0.0720 C.3       1 <0>         0.0629
      3 O1          5.5475   -3.0525    0.0311 O.3       1 <0>        -0.3549
      4 C3          5.2814   -2.2687    1.0944 C.2       1 <0>         0.5063
      5 O2          6.0556   -2.2305    2.0301 O.2       1 <0>        -0.5001
      6 C4          4.0505   -1.4571    1.1223 C.ar      1 <0>        -0.1311
      7 C5          3.7727   -0.6432    2.2246 C.ar      1 <0>        -0.0295
      8 C6          2.6230    0.1133    2.2471 C.ar      1 <0>        -0.1514
      9 C7          1.7377    0.0688    1.1745 C.ar      1 <0>         0.1723
     10 C8          2.0084   -0.7441    0.0780 C.ar      1 <0>        -0.1362
     11 C9          3.1587   -1.4993    0.0464 C.ar      1 <0>        -0.0405
     12 N1          0.5741    0.8360    1.2009 N.am      1 <0>        -0.6572
     13 C10         0.0606    1.3213    0.0531 C.2       1 <0>         0.5303
     14 O3          0.6575    1.1668   -0.9912 O.2       1 <0>        -0.4931
     15 C11        -1.2522    2.0612    0.0684 C.3       1 <0>        -0.1112
     16 H1         -1.3208    2.6921    0.9546 H         1 <0>         0.1423
     17 C12        -1.4055    2.9126   -1.2150 C.3       1 <0>        -0.1224
     18 C13        -2.2633    2.0050   -2.1332 C.3       1 <0>         0.0361
     19 H2         -1.6402    1.2599   -2.6277 H         1 <0>         0.1547
     20 C14        -2.4226    1.0719    0.0259 C.3       1 <0>         0.0907
     21 C15        -1.9301   -0.3501    0.0346 C.ar      1 <0>        -0.2151
     22 C16        -1.1174   -1.0735   -0.8093 C.ar      1 <0>        -0.0412
     23 C17        -0.8382   -2.4000   -0.5320 C.ar      1 <0>        -0.1205
     24 C18        -1.3766   -2.9957    0.5941 C.ar      1 <0>        -0.0411
     25 C19        -2.1904   -2.2741    1.4424 C.ar      1 <0>        -0.1225
     26 C20        -2.4761   -0.9379    1.1709 C.ar      1 <0>         0.1649
     27 N2         -3.2561   -0.0118    1.8661 N.am      1 <0>        -0.6399
     28 C21        -3.2755    1.1912    1.2624 C.2       1 <0>         0.5278
     29 O4         -3.8663    2.1806    1.6407 O.2       1 <0>        -0.4423
     30 C22        -3.0236    2.8437   -3.1626 C.3       1 <0>        -0.0890
     31 C23        -3.8404    1.9358   -4.0456 C.ar      1 <0>        -0.1271
     32 C24        -3.2945    1.4306   -5.2108 C.ar      1 <0>        -0.1026
     33 C25        -4.0420    0.5936   -6.0180 C.ar      1 <0>        -0.1070
     34 C26        -5.3392    0.2710   -5.6659 C.ar      1 <0>        -0.1037
     35 C27        -5.8869    0.7804   -4.5034 C.ar      1 <0>        -0.1094
     36 C28        -5.1375    1.6129   -3.6932 C.ar      1 <0>        -0.1363
     37 H3          6.0560   -5.3224   -1.2971 H         1 <0>         0.0673
     38 H4          6.9259   -3.9764   -2.0716 H         1 <0>         0.0678
     39 H5          7.8295   -5.2248   -1.1810 H         1 <0>         0.0842
     40 H6          7.6276   -3.1472    0.1574 H         1 <0>         0.0736
     41 H7          6.7577   -4.4932    0.9320 H         1 <0>         0.0734
     42 H8          4.4592   -0.6084    3.0577 H         1 <0>         0.1468
     43 H9          2.4079    0.7425    3.0982 H         1 <0>         0.1381
     44 H10         1.3169   -0.7797   -0.7508 H         1 <0>         0.1443
     45 H11         3.3702   -2.1269   -0.8068 H         1 <0>         0.1450
     46 H12         0.1339    1.0206    2.0454 H         1 <0>         0.4138
     47 H13        -1.9266    3.8453   -0.9991 H         1 <0>         0.1189
     48 H14        -0.4329    3.1085   -1.6664 H         1 <0>         0.1397
     49 H15        -0.6981   -0.6056   -1.6877 H         1 <0>         0.1438
     50 H16        -0.2012   -2.9688   -1.1931 H         1 <0>         0.1477
     51 H17        -1.1590   -4.0312    0.8102 H         1 <0>         0.1492
     52 H18        -2.6071   -2.7463    2.3198 H         1 <0>         0.1443
     53 H19        -3.7290   -0.2120    2.6890 H         1 <0>         0.4375
     54 H20        -3.6847    3.5402   -2.6470 H         1 <0>         0.1012
     55 H21        -2.3132    3.4013   -3.7730 H         1 <0>         0.1281
     56 H22        -2.2826    1.6865   -5.4883 H         1 <0>         0.1305
     57 H23        -3.6140    0.1953   -6.9261 H         1 <0>         0.1320
     58 H24        -5.9247   -0.3794   -6.2988 H         1 <0>         0.1310
     59 H25        -6.9004    0.5284   -4.2283 H         1 <0>         0.1300
     60 H26        -5.5655    2.0111   -2.7852 H         1 <0>         0.1186
     61 N3         -3.1820    1.3596   -1.1826 N.4       1 <0>        -0.4931
     62 H27        -3.5474    0.4881   -1.5839 H         1 <0>         0.4419
     63 H28        -3.9627    1.9902   -0.9654 H         1 <0>         0.4353
@<TRIPOS>BOND
     1    1    2 1
     2    1   37 1
     3    1   38 1
     4    1   39 1
     5    2    3 1
     6    2   40 1
     7    2   41 1
     8    3    4 1
     9    4    5 2
    10    4    6 1
    11    6   11 ar
    12    6    7 ar
    13    7    8 ar
    14    7   42 1
    15    8    9 ar
    16    8   43 1
    17    9   10 ar
    18    9   12 1
    19   10   11 ar
    20   10   44 1
    21   11   45 1
    22   12   13 am
    23   12   46 1
    24   13   14 2
    25   13   15 1
    26   15   16 1
    27   15   20 1
    28   15   17 1
    29   17   18 1
    30   17   47 1
    31   17   48 1
    32   18   19 1
    33   18   30 1
    34   18   61 1
    35   20   28 1
    36   20   21 1
    37   20   61 1
    38   21   26 ar
    39   21   22 ar
    40   22   23 ar
    41   22   49 1
    42   23   24 ar
    43   23   50 1
    44   24   25 ar
    45   24   51 1
    46   25   26 ar
    47   25   52 1
    48   26   27 1
    49   27   28 am
    50   27   53 1
    51   28   29 2
    52   30   31 1
    53   30   54 1
    54   30   55 1
    55   31   36 ar
    56   31   32 ar
    57   32   33 ar
    58   32   56 1
    59   33   34 ar
    60   33   57 1
    61   34   35 ar
    62   34   58 1
    63   35   36 ar
    64   35   59 1
    65   36   60 1
    66   61   62 1
    67   61   63 1
@<TRIPOS>MOLECULE
ZINC19877491
   69    73     0     0     0
SMALL
USER_CHARGES
1-[2-[[4-(6-methyl-1,3-benzothiazol-2-yl)phenyl]amino]-2-oxo-ethyl]-4-(1-piperidyl)piperidine-4-carboxamide
@<TRIPOS>ATOM
      1 C1         17.9561    6.5020    5.9420 C.3       1 <0>        -0.1212
      2 C2         16.7355    5.7036    6.3211 C.ar      1 <0>        -0.0458
      3 C3         16.4754    5.4105    7.6527 C.ar      1 <0>        -0.1118
      4 C4         15.3821    4.6936    8.0258 C.ar      1 <0>        -0.0490
      5 C5         14.4633    4.2166    7.0604 C.ar      1 <0>         0.0637
      6 C6         14.7560    4.5311    5.7122 C.ar      1 <0>        -0.1271
      7 C7         15.8637    5.2558    5.3461 C.ar      1 <0>        -0.0756
      8 S1         13.4028    3.7749    4.8446 S.3       1 <0>        -0.0013
      9 C8         12.5622    3.1116    6.2757 C.2       1 <0>         0.1805
     10 N1         13.3380    3.5039    7.2629 N.2       1 <0>        -0.4858
     11 C9         11.3109    2.3277    6.3352 C.ar      1 <0>        -0.0144
     12 C10        10.8130    1.8970    7.5667 C.ar      1 <0>        -0.0493
     13 C11         9.6465    1.1660    7.6188 C.ar      1 <0>        -0.1309
     14 C12         8.9653    0.8565    6.4468 C.ar      1 <0>         0.1439
     15 C13         9.4613    1.2793    5.2185 C.ar      1 <0>        -0.1128
     16 C14        10.6242    2.0155    5.1601 C.ar      1 <0>        -0.0705
     17 N2          7.7833    0.1143    6.5029 N.am      1 <0>        -0.6593
     18 C15         6.7760    0.3858    5.6497 C.2       1 <0>         0.5040
     19 O1          6.9256    1.2175    4.7797 O.2       1 <0>        -0.5152
     20 C16         5.4637   -0.3442    5.7766 C.3       1 <0>        -0.0251
     21 N3          4.5296    0.1465    4.7544 N.4       1 <0>        -0.3824
     22 C17         4.9879   -0.2134    3.4065 C.3       1 <0>        -0.0121
     23 C18         4.0733    0.4355    2.3651 C.3       1 <0>        -0.1299
     24 C19         2.6369   -0.0483    2.5822 C.3       1 <0>         0.0826
     25 C20         2.2009    0.2958    4.0091 C.3       1 <0>        -0.1617
     26 C21         3.1698   -0.3490    5.0029 C.3       1 <0>        -0.0224
     27 C22         2.5721   -1.5403    2.3805 C.2       1 <0>         0.5329
     28 O2          2.5815   -2.2829    3.3394 O.2       1 <0>        -0.5581
     29 N4          2.5038   -2.0495    1.1345 N.am      1 <0>        -0.8540
     30 N5          1.7448    0.6160    1.6226 N.3       1 <0>        -0.5160
     31 C23         0.3729    0.1053    1.7388 C.3       1 <0>         0.0430
     32 C24        -0.4936    0.7106    0.6321 C.3       1 <0>        -0.1179
     33 C25        -0.4845    2.2363    0.7604 C.3       1 <0>        -0.1272
     34 C26         0.9600    2.7385    0.6846 C.3       1 <0>        -0.1189
     35 C27         1.7844    2.0744    1.7898 C.3       1 <0>         0.0451
     36 H1         18.5193    6.7640    6.8498 H         1 <0>         0.0749
     37 H2         17.6463    7.4219    5.4244 H         1 <0>         0.0789
     38 H3         18.5935    5.9029    5.2751 H         1 <0>         0.0790
     39 H4         17.1588    5.7612    8.4119 H         1 <0>         0.1386
     40 H5         15.2123    4.4857    9.0719 H         1 <0>         0.1361
     41 H6         16.0518    5.4747    4.3053 H         1 <0>         0.1370
     42 H7         11.3420    2.1365    8.4773 H         1 <0>         0.1464
     43 H8          9.2608    0.8327    8.5709 H         1 <0>         0.1393
     44 H9          8.9323    1.0334    4.3096 H         1 <0>         0.1436
     45 H10        11.0068    2.3471    4.2061 H         1 <0>         0.1360
     46 H11         7.6746   -0.6918    7.2435 H         1 <0>         0.4497
     47 H12         5.6288   -1.4225    5.6351 H         1 <0>         0.1612
     48 H13         5.0402   -0.1662    6.7761 H         1 <0>         0.1645
     49 H14         6.0183    0.1435    3.2621 H         1 <0>         0.1496
     50 H15         4.9587   -1.3067    3.2890 H         1 <0>         0.1249
     51 H16         4.1138    1.5295    2.4724 H         1 <0>         0.1058
     52 H17         4.4085    0.1535    1.3561 H         1 <0>         0.1240
     53 H18         2.2095    1.3877    4.1418 H         1 <0>         0.0972
     54 H19         1.1846   -0.0869    4.1843 H         1 <0>         0.1168
     55 H20         3.1492   -1.4417    4.8780 H         1 <0>         0.1698
     56 H21         2.8674   -0.0915    6.0287 H         1 <0>         0.1290
     57 H22         2.4565   -3.1386    0.9872 H         1 <0>         0.4323
     58 H23         2.4954   -1.3760    0.2648 H         1 <0>         0.4381
     59 H24         0.3800   -0.9903    1.6405 H         1 <0>         0.0820
     60 H25        -0.0398    0.3827    2.7200 H         1 <0>         0.0423
     61 H26        -0.0900    0.4210   -0.3493 H         1 <0>         0.0760
     62 H27        -1.5244    0.3389    0.7288 H         1 <0>         0.0741
     63 H28        -1.0722    2.6766   -0.0586 H         1 <0>         0.0724
     64 H29        -0.9261    2.5258    1.7254 H         1 <0>         0.0606
     65 H30         1.3860    2.4830   -0.2969 H         1 <0>         0.0768
     66 H31         0.9762    3.8302    0.8183 H         1 <0>         0.0745
     67 H32         1.3651    2.3425    2.7708 H         1 <0>         0.0430
     68 H33         2.8261    2.4223    1.7289 H         1 <0>         0.0831
     69 H34         4.5030    1.2444    4.8174 H         1 <0>         0.4426
@<TRIPOS>BOND
     1    1    2 1
     2    1   36 1
     3    1   37 1
     4    1   38 1
     5    2    7 ar
     6    2    3 ar
     7    3    4 ar
     8    3   39 1
     9    4    5 ar
    10    4   40 1
    11    5   10 1
    12    5    6 ar
    13    6    7 ar
    14    6    8 1
    15    7   41 1
    16    8    9 1
    17    9   10 2
    18    9   11 1
    19   11   16 ar
    20   11   12 ar
    21   12   13 ar
    22   12   42 1
    23   13   14 ar
    24   13   43 1
    25   14   15 ar
    26   14   17 1
    27   15   16 ar
    28   15   44 1
    29   16   45 1
    30   17   18 am
    31   17   46 1
    32   18   19 2
    33   18   20 1
    34   20   21 1
    35   20   47 1
    36   20   48 1
    37   21   26 1
    38   21   22 1
    39   21   69 1
    40   22   23 1
    41   22   49 1
    42   22   50 1
    43   23   24 1
    44   23   51 1
    45   23   52 1
    46   24   25 1
    47   24   27 1
    48   24   30 1
    49   25   26 1
    50   25   53 1
    51   25   54 1
    52   26   55 1
    53   26   56 1
    54   27   28 2
    55   27   29 am
    56   29   57 1
    57   29   58 1
    58   30   35 1
    59   30   31 1
    60   31   32 1
    61   31   59 1
    62   31   60 1
    63   32   33 1
    64   32   61 1
    65   32   62 1
    66   33   34 1
    67   33   63 1
    68   33   64 1
    69   34   35 1
    70   34   65 1
    71   34   66 1
    72   35   67 1
    73   35   68 1
@<TRIPOS>MOLECULE
ZINC35768267
   65    68     0     0     0
SMALL
USER_CHARGES

@<TRIPOS>ATOM
      1 C1          0.1663    1.5028   -0.0080 C.3       1 <0>        -0.1179
      2 C2          0.1348   -0.0039   -0.0112 C.ar      1 <0>        -0.0907
      3 C3          0.5420   -0.7001   -1.1347 C.ar      1 <0>        -0.1046
      4 C4          0.5144   -2.0808   -1.1408 C.ar      1 <0>        -0.1243
      5 C5          0.0771   -2.7701   -0.0172 C.ar      1 <0>         0.1413
      6 C6         -0.3311   -2.0682    1.1090 C.ar      1 <0>        -0.1117
      7 C7         -0.2957   -0.6873    1.1109 C.ar      1 <0>        -0.1004
      8 C8         -0.8068   -2.8122    2.3302 C.3       1 <0>        -0.1140
      9 N1          0.0474   -4.1693   -0.0205 N.am      1 <0>        -0.6728
     10 C9         -0.0405   -4.8388   -1.1869 C.2       1 <0>         0.7099
     11 O1         -0.0443   -4.2292   -2.2389 O.2       1 <0>        -0.5480
     12 N2         -0.1242   -6.1839   -1.1871 N.am      1 <0>        -0.6343
     13 C10        -0.2254   -6.9268    0.0766 C.3       1 <0>         0.0966
     14 C11        -1.4647   -7.8280    0.0189 C.3       1 <0>        -0.1401
     15 C12        -1.4113   -8.6847   -1.2364 C.3       1 <0>         0.0932
     16 C13        -1.3562   -7.8342   -2.4959 C.3       1 <0>        -0.1396
     17 C14        -0.1220   -6.9328   -2.4513 C.3       1 <0>         0.1164
     18 N3         -0.2765   -9.6303   -1.1851 N.4       1 <0>        -0.5054
     19 C15        -0.6475  -10.9028   -0.5346 C.3       1 <0>        -0.0061
     20 H1         -0.7715  -10.7442    0.5366 H         1 <0>         0.1814
     21 C16        -1.9889  -11.4066   -1.1482 C.3       1 <0>        -0.0941
     22 S1         -2.8738   -9.7928   -1.2969 S.3       1 <0>        -0.1488
     23 C17         0.4317  -11.9272   -0.7733 C.2       1 <0>         0.5121
     24 O2          1.4146  -11.6331   -1.4200 O.2       1 <0>        -0.5142
     25 N4          0.3045  -13.1702   -0.2681 N.am      1 <0>        -0.6949
     26 C18         1.3536  -14.1661   -0.5001 C.3       1 <0>         0.1179
     27 C19         0.9653  -15.4828    0.1754 C.3       1 <0>        -0.0962
     28 C20         2.0445  -16.5072   -0.0633 C.ar      1 <0>        -0.0819
     29 C21         1.9355  -17.3926   -1.1194 C.ar      1 <0>        -0.0859
     30 C22         2.9248  -18.3323   -1.3389 C.ar      1 <0>        -0.1008
     31 C23         4.0254  -18.3872   -0.5018 C.ar      1 <0>        -0.0197
     32 C24         4.1352  -17.5014    0.5547 C.ar      1 <0>        -0.0990
     33 C25         3.1468  -16.5577    0.7711 C.ar      1 <0>        -0.0198
     34 Cl1         3.2867  -15.4415    2.0933 Cl        1 <0>        -0.0526
     35 Cl2         5.2677  -19.5681   -0.7774 Cl        1 <0>        -0.0434
     36 H2          1.1373    1.8451    0.3498 H         1 <0>         0.0728
     37 H3          0.0012    1.8718   -1.0202 H         1 <0>         0.0686
     38 H4         -0.6170    1.8811    0.6489 H         1 <0>         0.0678
     39 H5          0.8817   -0.1635   -2.0082 H         1 <0>         0.1273
     40 H6          0.8322   -2.6239   -2.0186 H         1 <0>         0.1546
     41 H7         -0.6089   -0.1408    1.9882 H         1 <0>         0.1283
     42 H8          0.0401   -3.0128    2.9863 H         1 <0>         0.0719
     43 H9         -1.5421   -2.2073    2.8607 H         1 <0>         0.0760
     44 H10        -1.2626   -3.7547    2.0268 H         1 <0>         0.0554
     45 H11         0.0902   -4.6572    0.8168 H         1 <0>         0.4038
     46 H12         0.6659   -7.5392    0.2132 H         1 <0>         0.0754
     47 H13        -0.3212   -6.2261    0.9061 H         1 <0>         0.1097
     48 H14        -1.4866   -8.4723    0.8978 H         1 <0>         0.1131
     49 H15        -2.3625   -7.2102   -0.0009 H         1 <0>         0.1312
     50 H16        -1.3024   -8.4829   -3.3702 H         1 <0>         0.1171
     51 H17        -2.2522   -7.2165   -2.5565 H         1 <0>         0.1311
     52 H18        -0.1494   -6.2361   -3.2891 H         1 <0>         0.1303
     53 H19         0.7774   -7.5457   -2.5117 H         1 <0>         0.0730
     54 H20         0.0347   -9.8210   -2.1258 H         1 <0>         0.4390
     55 H21        -1.8326  -11.8665   -2.1240 H         1 <0>         0.1355
     56 H22        -2.5075  -12.0842   -0.4700 H         1 <0>         0.1637
     57 H23        -0.4816  -13.4055    0.2492 H         1 <0>         0.4126
     58 H24         1.4703  -14.3281   -1.5717 H         1 <0>         0.0870
     59 H25         2.2942  -13.8070   -0.0824 H         1 <0>         0.0870
     60 H26         0.8487  -15.3209    1.2470 H         1 <0>         0.0928
     61 H27         0.0247  -15.8419   -0.2423 H         1 <0>         0.0926
     62 H28         1.0768  -17.3501   -1.7729 H         1 <0>         0.1443
     63 H29         2.8388  -19.0242   -2.1637 H         1 <0>         0.1457
     64 H30         4.9939  -17.5439    1.2083 H         1 <0>         0.1488
     65 H31         0.4807   -9.2069   -0.6699 H         1 <0>         0.4360
@<TRIPOS>BOND
     1    1    2 1
     2    1   36 1
     3    1   37 1
     4    1   38 1
     5    2    7 ar
     6    2    3 ar
     7    3    4 ar
     8    3   39 1
     9    4    5 ar
    10    4   40 1
    11    5    6 ar
    12    5    9 1
    13    6    7 ar
    14    6    8 1
    15    7   41 1
    16    8   42 1
    17    8   43 1
    18    8   44 1
    19    9   10 am
    20    9   45 1
    21   10   11 2
    22   10   12 am
    23   12   17 1
    24   12   13 1
    25   13   14 1
    26   13   46 1
    27   13   47 1
    28   14   15 1
    29   14   48 1
    30   14   49 1
    31   15   22 1
    32   15   16 1
    33   15   18 1
    34   16   17 1
    35   16   50 1
    36   16   51 1
    37   17   52 1
    38   17   53 1
    39   18   19 1
    40   18   54 1
    41   18   65 1
    42   19   20 1
    43   19   21 1
    44   19   23 1
    45   21   22 1
    46   21   55 1
    47   21   56 1
    48   23   24 2
    49   23   25 am
    50   25   26 1
    51   25   57 1
    52   26   27 1
    53   26   58 1
    54   26   59 1
    55   27   28 1
    56   27   60 1
    57   27   61 1
    58   28   33 ar
    59   28   29 ar
    60   29   30 ar
    61   29   62 1
    62   30   31 ar
    63   30   63 1
    64   31   32 ar
    65   31   35 1
    66   32   33 ar
    67   32   64 1
    68   33   34 1
@<TRIPOS>MOLECULE
ZINC38551044
   62    66     0     0     0
SMALL
USER_CHARGES

@<TRIPOS>ATOM
      1 C1          2.9328   -5.9080    2.8954 C.3       1 <0>        -0.1428
      2 C2          1.9120   -5.1414    2.0947 C.ar      1 <0>         0.0764
      3 C3          1.7183   -5.4118    0.7463 C.ar      1 <0>        -0.1702
      4 C4          0.7751   -4.6921    0.0410 C.ar      1 <0>         0.1494
      5 N1          0.0588   -3.7542    0.6316 N.ar      1 <0>        -0.5074
      6 C5          0.2141   -3.4666    1.9146 C.ar      1 <0>         0.4513
      7 C6          1.1429   -4.1566    2.6874 C.ar      1 <0>        -0.1978
      8 N2         -0.5616   -2.4704    2.4960 N.pl3     1 <0>        -0.7065
      9 C7         -0.3348   -2.0861    3.8914 C.3       1 <0>         0.2559
     10 H1         -0.1686   -2.9803    4.4921 H         1 <0>         0.1162
     11 C8         -1.5415   -1.3485    4.4118 C.ar      1 <0>        -0.1423
     12 C9         -2.2571   -0.5161    3.5712 C.ar      1 <0>        -0.0808
     13 C10        -3.3634    0.1615    4.0459 C.ar      1 <0>        -0.1391
     14 C11        -3.7564    0.0059    5.3673 C.ar      1 <0>         0.1479
     15 C12        -3.0370   -0.8303    6.2086 C.ar      1 <0>        -0.1961
     16 C13        -1.9345   -1.5097    5.7276 C.ar      1 <0>        -0.0501
     17 O1         -4.8441    0.6717    5.8368 O.3       1 <0>        -0.3112
     18 C14        -5.1904    0.4635    7.2075 C.3       1 <0>         0.0228
     19 C15         0.8754   -1.1921    3.9758 C.2       1 <0>        -0.1876
     20 C16         1.8143   -1.3802    4.9908 C.2       1 <0>        -0.0982
     21 C17         2.8787   -0.5337    5.0006 C.2       1 <0>        -0.1721
     22 S1          2.5927    0.5268    3.6091 S.3       1 <0>         0.1882
     23 C18         1.0578   -0.2040    3.0599 C.2       1 <0>         0.0764
     24 N3          0.2540    0.1489    1.9741 N.am      1 <0>        -0.6222
     25 C19         0.5880    1.2023    1.2025 C.2       1 <0>         0.6007
     26 O2          1.6370    1.7891    1.3947 O.2       1 <0>        -0.4702
     27 C20        -0.3121    1.6414    0.1316 C.2       1 <0>        -0.1069
     28 C21        -0.0565    2.6279   -0.7775 C.2       1 <0>        -0.0869
     29 C22        -1.1834    2.7111   -1.6102 C.2       1 <0>        -0.2192
     30 C23        -2.0663    1.7837   -1.1785 C.2       1 <0>         0.0120
     31 O3         -1.5356    1.1377   -0.1319 O.3       1 <0>        -0.1766
     32 C24         4.0177   -0.5137    5.9680 C.3       1 <0>        -0.0430
     33 C25         3.6317   -1.3661    7.1863 C.3       1 <0>        -0.1154
     34 C26         3.0569   -2.6967    6.6922 C.3       1 <0>        -0.1205
     35 C27         1.6869   -2.4693    6.0522 C.3       1 <0>        -0.0609
     36 H2          2.4466   -6.7436    3.3989 H         1 <0>         0.1068
     37 H3          3.7077   -6.2866    2.2289 H         1 <0>         0.0951
     38 H4          3.3823   -5.2484    3.6376 H         1 <0>         0.0948
     39 H5          2.3001   -6.1773    0.2545 H         1 <0>         0.1812
     40 H6          0.6216   -4.8990   -1.0078 H         1 <0>         0.2079
     41 H7          1.2645   -3.9233    3.7349 H         1 <0>         0.1774
     42 H8         -1.2531   -2.0297    1.9778 H         1 <0>         0.4100
     43 H9         -1.9508   -0.3953    2.5426 H         1 <0>         0.1079
     44 H10        -3.9217    0.8121    3.3891 H         1 <0>         0.1380
     45 H11        -3.3409   -0.9531    7.2377 H         1 <0>         0.1394
     46 H12        -1.3766   -2.1642    6.3810 H         1 <0>         0.1332
     47 H13        -4.3606    0.7731    7.8429 H         1 <0>         0.0607
     48 H14        -6.0747    1.0520    7.4523 H         1 <0>         0.1082
     49 H15        -5.4000   -0.5932    7.3729 H         1 <0>         0.0604
     50 H16        -0.5449   -0.3640    1.7751 H         1 <0>         0.4054
     51 H17         0.8391    3.2279   -0.8429 H         1 <0>         0.1675
     52 H18        -1.3194    3.3891   -2.4398 H         1 <0>         0.1665
     53 H19        -3.0381    1.5921   -1.6089 H         1 <0>         0.2192
     54 H20         4.9078   -0.9294    5.4959 H         1 <0>         0.0866
     55 H21         4.2134    0.5110    6.2838 H         1 <0>         0.0849
     56 H22         4.5155   -1.5536    7.7962 H         1 <0>         0.0782
     57 H23         2.8816   -0.8407    7.7773 H         1 <0>         0.0703
     58 H24         3.7327   -3.1314    5.9557 H         1 <0>         0.0668
     59 H25         2.9536   -3.3811    7.5343 H         1 <0>         0.0736
     60 H26         0.9749   -2.1544    6.8151 H         1 <0>         0.0814
     61 H27         1.3428   -3.3935    5.5878 H         1 <0>         0.0663
     62 H28        -0.5975   -3.2631    0.1128 H         1 <0>         0.4394
@<TRIPOS>BOND
     1    1    2 1
     2    1   36 1
     3    1   37 1
     4    1   38 1
     5    2    7 ar
     6    2    3 ar
     7    3    4 ar
     8    3   39 1
     9    4    5 ar
    10    4   40 1
    11    5    6 ar
    12    5   62 1
    13    6    7 ar
    14    6    8 1
    15    7   41 1
    16    8    9 1
    17    8   42 1
    18    9   10 1
    19    9   11 1
    20    9   19 1
    21   11   16 ar
    22   11   12 ar
    23   12   13 ar
    24   12   43 1
    25   13   14 ar
    26   13   44 1
    27   14   15 ar
    28   14   17 1
    29   15   16 ar
    30   15   45 1
    31   16   46 1
    32   17   18 1
    33   18   47 1
    34   18   48 1
    35   18   49 1
    36   19   23 2
    37   19   20 1
    38   20   35 1
    39   20   21 2
    40   21   22 1
    41   21   32 1
    42   22   23 1
    43   23   24 1
    44   24   25 am
    45   24   50 1
    46   25   26 2
    47   25   27 1
    48   27   31 1
    49   27   28 2
    50   28   29 1
    51   28   51 1
    52   29   30 2
    53   29   52 1
    54   30   31 1
    55   30   53 1
    56   32   33 1
    57   32   54 1
    58   32   55 1
    59   33   34 1
    60   33   56 1
    61   33   57 1
    62   34   35 1
    63   34   58 1
    64   34   59 1
    65   35   60 1
    66   35   61 1
@<TRIPOS>MOLECULE
ZINC15676190
   52    55     0     0     0
SMALL
USER_CHARGES

@<TRIPOS>ATOM
      1 C1         -0.8586    2.7706   -2.5551 C.ar      1 <0>        -0.1008
      2 C2          0.0073    3.7169   -3.0704 C.ar      1 <0>        -0.0708
      3 C3          1.2489    3.3336   -3.5420 C.ar      1 <0>        -0.1730
      4 C4          1.6249    2.0041   -3.4978 C.ar      1 <0>        -0.0697
      5 C5          0.7593    1.0579   -2.9816 C.ar      1 <0>        -0.0992
      6 C6         -0.4828    1.4410   -2.5113 C.ar      1 <0>        -0.0797
      7 C7         -1.4266    0.4094   -1.9490 C.3       1 <0>         0.1594
      8 N1         -2.2702   -0.1183   -3.0243 N.am      1 <0>        -0.7242
      9 C8         -3.1959   -1.0598   -2.7541 C.2       1 <0>         0.5097
     10 O1         -3.3306   -1.4703   -1.6209 O.2       1 <0>        -0.5145
     11 C9         -4.0637   -1.6026   -3.8602 C.3       1 <0>         0.1509
     12 H1         -3.4651   -1.7351   -4.7614 H         1 <0>         0.1361
     13 C10        -5.2074   -0.6202   -4.1439 C.3       1 <0>        -0.0468
     14 C11        -6.2229   -0.7246   -3.0365 C.2       1 <0>        -0.0290
     15 C12        -6.3184   -1.7577   -2.1722 C.2       1 <0>         0.0063
     16 N2         -7.3304   -1.5092   -1.3381 N.2       1 <0>        -0.4764
     17 C13        -7.8676   -0.3581   -1.6482 C.2       1 <0>         0.1901
     18 N3         -7.2014    0.1629   -2.7043 N.pl3     1 <0>        -0.5578
     19 H2         -7.3853    1.0088   -3.1417 H         1 <0>         0.4217
     20 C14        -5.4011   -2.9573   -2.1950 C.3       1 <0>         0.1942
     21 N4         -4.6296   -2.8968   -3.4511 N.am      1 <0>        -0.6073
     22 C15        -4.4496   -3.9984   -4.2064 C.2       1 <0>         0.7188
     23 O2         -3.8957   -3.9120   -5.2853 O.2       1 <0>        -0.5665
     24 N5         -4.8836   -5.1959   -3.7657 N.am      1 <0>        -0.6814
     25 C16        -4.5996   -6.3557   -4.4966 C.ar      1 <0>         0.1709
     26 C17        -3.4071   -6.4598   -5.2002 C.ar      1 <0>        -0.1081
     27 C18        -3.1294   -7.6050   -5.9206 C.ar      1 <0>        -0.0885
     28 C19        -4.0384   -8.6481   -5.9415 C.ar      1 <0>        -0.0522
     29 C20        -5.2278   -8.5467   -5.2415 C.ar      1 <0>        -0.0879
     30 C21        -5.5075   -7.4061   -4.5146 C.ar      1 <0>        -0.1348
     31 Cl1        -3.6863  -10.0862   -6.8479 Cl        1 <0>        -0.0700
     32 C22         2.1925    4.3652   -4.1047 C.3       1 <0>         0.5068
     33 F1          2.9978    4.8699   -3.0781 F         1 <0>        -0.1745
     34 F2          2.9996    3.7745   -5.0829 F         1 <0>        -0.1752
     35 F3          1.4560    5.4087   -4.6756 F         1 <0>        -0.1758
     36 H3         -1.8269    3.0706   -2.1825 H         1 <0>         0.1370
     37 H4         -0.2864    4.7556   -3.1050 H         1 <0>         0.1396
     38 H5          2.5946    1.7046   -3.8668 H         1 <0>         0.1404
     39 H6          1.0528    0.0191   -2.9477 H         1 <0>         0.1391
     40 H7         -0.8530   -0.4041   -1.5049 H         1 <0>         0.0842
     41 H8         -2.0552    0.8693   -1.1865 H         1 <0>         0.0827
     42 H9         -2.1625    0.2100   -3.9307 H         1 <0>         0.4039
     43 H10        -4.8146    0.3958   -4.1848 H         1 <0>         0.0910
     44 H11        -5.6770   -0.8710   -5.0951 H         1 <0>         0.0995
     45 H12        -8.7054    0.1011   -1.1445 H         1 <0>         0.2129
     46 H13        -4.7232   -2.9222   -1.3421 H         1 <0>         0.1155
     47 H14        -5.9891   -3.8746   -2.1650 H         1 <0>         0.0858
     48 H15        -5.3926   -5.2541   -2.9420 H         1 <0>         0.4110
     49 H16        -2.6974   -5.6458   -5.1845 H         1 <0>         0.1448
     50 H17        -2.2021   -7.6863   -6.4683 H         1 <0>         0.1371
     51 H18        -5.9358   -9.3621   -5.2598 H         1 <0>         0.1383
     52 H19        -6.4338   -7.3294   -3.9646 H         1 <0>         0.1359
@<TRIPOS>BOND
     1    1    6 ar
     2    1    2 ar
     3    1   36 1
     4    2    3 ar
     5    2   37 1
     6    3    4 ar
     7    3   32 1
     8    4    5 ar
     9    4   38 1
    10    5    6 ar
    11    5   39 1
    12    6    7 1
    13    7    8 1
    14    7   40 1
    15    7   41 1
    16    8    9 am
    17    8   42 1
    18    9   10 2
    19    9   11 1
    20   11   12 1
    21   11   21 1
    22   11   13 1
    23   13   14 1
    24   13   43 1
    25   13   44 1
    26   14   18 1
    27   14   15 2
    28   15   16 1
    29   15   20 1
    30   16   17 2
    31   17   18 1
    32   17   45 1
    33   18   19 1
    34   20   21 1
    35   20   46 1
    36   20   47 1
    37   21   22 am
    38   22   23 2
    39   22   24 am
    40   24   25 1
    41   24   48 1
    42   25   30 ar
    43   25   26 ar
    44   26   27 ar
    45   26   49 1
    46   27   28 ar
    47   27   50 1
    48   28   29 ar
    49   28   31 1
    50   29   30 ar
    51   29   51 1
    52   30   52 1
    53   32   33 1
    54   32   34 1
    55   32   35 1
@<TRIPOS>MOLECULE
ZINC65074622
   64    67     0     0     0
SMALL
USER_CHARGES

@<TRIPOS>ATOM
      1 C1         -0.0187    1.5258    0.0104 C.3       1 <0>        -0.1562
      2 C2          0.0021   -0.0041    0.0020 C.3       1 <0>        -0.1159
      3 C3          0.7182   -0.4975   -1.2568 C.3       1 <0>        -0.0968
      4 C4          0.7386   -2.0043   -1.2651 C.ar      1 <0>        -0.0147
      5 C5          1.7875   -2.6846   -0.6752 C.ar      1 <0>        -0.1369
      6 C6          1.8063   -4.0668   -0.6828 C.ar      1 <0>        -0.0181
      7 C7          0.7759   -4.7687   -1.2799 C.ar      1 <0>        -0.6878
      8 C8         -0.2734   -4.0885   -1.8690 C.ar      1 <0>        -0.0166
      9 C9         -0.2943   -2.7063   -1.8576 C.ar      1 <0>        -0.1364
     10 S1          0.8004   -6.5305   -1.2906 S.o2      1 <0>         2.6900
     11 O1         -0.0031   -6.9412   -2.3883 O.2       1 <0>        -0.9455
     12 O2          2.1606   -6.9186   -1.1548 O.2       1 <0>        -0.9476
     13 N1          0.0239   -7.0393    0.0808 N.pl3     1 <0>        -1.0051
     14 C10         0.7699   -7.2521    1.3286 C.3       1 <0>         0.1173
     15 C11         0.4830   -8.6674    1.8393 C.3       1 <0>        -0.1644
     16 C12        -1.0301   -8.8604    1.9731 C.3       1 <0>         0.1265
     17 C13        -1.6864   -8.7011    0.5989 C.3       1 <0>        -0.1220
     18 C14        -1.4254   -7.2809    0.0749 C.3       1 <0>         0.1155
     19 C15        -1.3153  -10.2344    2.5101 C.cat     1 <0>         0.5366
     20 N2         -1.6563  -10.4636    3.7216 N.pl3     1 <0>        -0.5961
     21 C16        -1.8208   -9.4210    4.7292 C.3       1 <0>         0.0861
     22 C17        -1.1382   -8.1318    4.2671 C.3       1 <0>         0.0163
     23 N3         -1.5688   -7.8438    2.8884 N.3       1 <0>        -0.6647
     24 N4         -1.2044  -11.2997    1.6558 N.pl3     1 <0>        -0.6717
     25 C18        -1.4735  -12.6566    2.1381 C.3       1 <0>         0.1247
     26 C19        -1.2824  -13.6377    1.0104 C.ar      1 <0>        -0.0782
     27 C20        -2.3458  -13.9615    0.1891 C.ar      1 <0>        -0.1408
     28 C21        -2.1715  -14.8633   -0.8472 C.ar      1 <0>         0.1420
     29 C22        -0.9315  -15.4401   -1.0607 C.ar      1 <0>        -0.1676
     30 C23         0.1329  -15.1148   -0.2379 C.ar      1 <0>         0.1417
     31 C24        -0.0425  -14.2088    0.7946 C.ar      1 <0>        -0.1417
     32 F1          1.3438  -15.6771   -0.4451 F         1 <0>        -0.1178
     33 F2         -3.2114  -15.1802   -1.6493 F         1 <0>        -0.1176
     34 H1          1.0039    1.9031    0.0027 H         1 <0>         0.0573
     35 H2         -0.5459    1.8868   -0.8726 H         1 <0>         0.0575
     36 H3         -0.5289    1.8773    0.9072 H         1 <0>         0.0588
     37 H4          0.5293   -0.3651    0.8851 H         1 <0>         0.0636
     38 H5         -1.0205   -0.3814    0.0098 H         1 <0>         0.0640
     39 H6          0.1910   -0.1364   -2.1398 H         1 <0>         0.0817
     40 H7          1.7408   -0.1202   -1.2645 H         1 <0>         0.0815
     41 H8          2.5925   -2.1362   -0.2087 H         1 <0>         0.1350
     42 H9          2.6261   -4.5982   -0.2226 H         1 <0>         0.1385
     43 H10        -1.0783   -4.6369   -2.3357 H         1 <0>         0.1398
     44 H11        -1.1160   -2.1749   -2.3146 H         1 <0>         0.1355
     45 H12         1.8376   -7.1413    1.1394 H         1 <0>         0.1168
     46 H13         0.4511   -6.5232    2.0737 H         1 <0>         0.0780
     47 H14         0.8818   -9.3965    1.1339 H         1 <0>         0.0966
     48 H15         0.9549   -8.8058    2.8121 H         1 <0>         0.0960
     49 H16        -1.2640   -9.4300   -0.0927 H         1 <0>         0.0872
     50 H17        -2.7606   -8.8631    0.6877 H         1 <0>         0.1062
     51 H18        -1.9195   -6.5541    0.7196 H         1 <0>         0.0888
     52 H19        -1.8069   -7.1893   -0.9420 H         1 <0>         0.1153
     53 H20        -2.8831   -9.2322    4.8839 H         1 <0>         0.1216
     54 H21        -1.3737   -9.7508    5.6670 H         1 <0>         0.1247
     55 H22        -1.4282   -7.3092    4.9208 H         1 <0>         0.1278
     56 H23        -0.0561   -8.2605    4.2935 H         1 <0>         0.0669
     57 H24        -1.2852   -6.9172    2.6071 H         1 <0>         0.3800
     58 H25        -0.9478  -11.1555    0.7315 H         1 <0>         0.4400
     59 H26        -0.7861  -12.8969    2.9492 H         1 <0>         0.1090
     60 H27        -2.4994  -12.7162    2.5017 H         1 <0>         0.1105
     61 H28        -3.3132  -13.5113    0.3559 H         1 <0>         0.1499
     62 H29        -0.7947  -16.1438   -1.8685 H         1 <0>         0.1608
     63 H30         0.7890  -13.9515    1.4340 H         1 <0>         0.1490
     64 H31        -1.8150  -11.3834    3.9855 H         1 <0>         0.4255
@<TRIPOS>BOND
     1    1    2 1
     2    1   34 1
     3    1   35 1
     4    1   36 1
     5    2    3 1
     6    2   37 1
     7    2   38 1
     8    3    4 1
     9    3   39 1
    10    3   40 1
    11    4    9 ar
    12    4    5 ar
    13    5    6 ar
    14    5   41 1
    15    6    7 ar
    16    6   42 1
    17    7    8 ar
    18    7   10 1
    19    8    9 ar
    20    8   43 1
    21    9   44 1
    22   10   11 2
    23   10   12 2
    24   10   13 1
    25   13   18 1
    26   13   14 1
    27   14   15 1
    28   14   45 1
    29   14   46 1
    30   15   16 1
    31   15   47 1
    32   15   48 1
    33   16   23 1
    34   16   17 1
    35   16   19 1
    36   17   18 1
    37   17   49 1
    38   17   50 1
    39   18   51 1
    40   18   52 1
    41   19   20 2
    42   19   24 1
    43   20   21 1
    44   20   64 1
    45   21   22 1
    46   21   53 1
    47   21   54 1
    48   22   23 1
    49   22   55 1
    50   22   56 1
    51   23   57 1
    52   24   25 1
    53   24   58 1
    54   25   26 1
    55   25   59 1
    56   25   60 1
    57   26   31 ar
    58   26   27 ar
    59   27   28 ar
    60   27   61 1
    61   28   29 ar
    62   28   33 1
    63   29   30 ar
    64   29   62 1
    65   30   31 ar
    66   30   32 1
    67   31   63 1
@<TRIPOS>MOLECULE
ZINC12549417
   70    73     0     0     0
SMALL
USER_CHARGES
N-(3,5-dimethylphenyl)-2-[[2-(1-piperidyl)-5-(1-piperidylsulfonyl)phenyl]amino]acetamide
@<TRIPOS>ATOM
      1 C1         10.6286    7.3354   -3.8482 C.3       1 <0>        -0.1153
      2 C2         10.3883    5.8527   -3.9700 C.ar      1 <0>        -0.0623
      3 C3         11.1279    5.1047   -4.8676 C.ar      1 <0>        -0.1343
      4 C4         10.9104    3.7439   -4.9824 C.ar      1 <0>        -0.0620
      5 C5          9.9536    3.1275   -4.2000 C.ar      1 <0>        -0.1261
      6 C6          9.2092    3.8760   -3.2976 C.ar      1 <0>         0.1509
      7 C7          9.4261    5.2433   -3.1888 C.ar      1 <0>        -0.1509
      8 N1          8.2388    3.2547   -2.5039 N.am      1 <0>        -0.6698
      9 C8          7.5441    2.2054   -2.9865 C.2       1 <0>         0.5108
     10 O1          7.6910    1.8597   -4.1398 O.2       1 <0>        -0.5072
     11 C9          6.5849    1.4617   -2.0933 C.3       1 <0>         0.1011
     12 N2          5.9596    0.3726   -2.8477 N.pl3     1 <0>        -0.7229
     13 C10         5.0252   -0.4639   -2.2251 C.ar      1 <0>         0.2257
     14 C11         4.6902   -0.2632   -0.8946 C.ar      1 <0>        -0.1017
     15 C12         3.7675   -1.0907   -0.2817 C.ar      1 <0>        -0.6284
     16 C13         3.1807   -2.1229   -0.9900 C.ar      1 <0>        -0.0664
     17 C14         3.5047   -2.3267   -2.3187 C.ar      1 <0>        -0.1198
     18 C15         4.4290   -1.5016   -2.9413 C.ar      1 <0>         0.0726
     19 N3          4.7625   -1.7094   -4.2852 N.pl3     1 <0>        -0.5016
     20 C16         3.6007   -1.4893   -5.1558 C.3       1 <0>         0.0620
     21 C17         4.0344   -1.5817   -6.6206 C.3       1 <0>        -0.1179
     22 C18         4.6376   -2.9644   -6.8829 C.3       1 <0>        -0.1224
     23 C19         5.8154   -3.1879   -5.9302 C.3       1 <0>        -0.1176
     24 C20         5.3300   -3.0489   -4.4855 C.3       1 <0>         0.0603
     25 S1          3.3436   -0.8335    1.4091 S.o2      1 <0>         2.6893
     26 O2          4.4383   -0.1490    2.0027 O.2       1 <0>        -0.9551
     27 O3          2.8656   -2.0777    1.9018 O.2       1 <0>        -0.9530
     28 N4          2.0596    0.2120    1.4384 N.pl3     1 <0>        -0.9953
     29 C21         0.6809   -0.2944    1.4005 C.3       1 <0>         0.1191
     30 C22        -0.0650    0.3919    0.2519 C.3       1 <0>        -0.1364
     31 C23         0.0428    1.9099    0.4138 C.3       1 <0>        -0.1181
     32 C24         1.5138    2.3279    0.3526 C.3       1 <0>        -0.1364
     33 C25         2.2776    1.6636    1.5024 C.3       1 <0>         0.1200
     34 C26        11.7187    2.9325   -5.9619 C.3       1 <0>        -0.1153
     35 H1          9.9809    7.8670   -4.5453 H         1 <0>         0.0723
     36 H2         10.4082    7.6568   -2.8302 H         1 <0>         0.0673
     37 H3         11.6706    7.5550   -4.0809 H         1 <0>         0.0688
     38 H4         11.8771    5.5842   -5.4800 H         1 <0>         0.1237
     39 H5          9.7847    2.0646   -4.2896 H         1 <0>         0.1330
     40 H6          8.8460    5.8288   -2.4909 H         1 <0>         0.1254
     41 H7          8.0660    3.5791   -1.6062 H         1 <0>         0.4141
     42 H8          5.8148    2.1461   -1.7374 H         1 <0>         0.0946
     43 H9          7.1265    1.0497   -1.2418 H         1 <0>         0.0980
     44 H10         6.1930    0.2310   -3.7785 H         1 <0>         0.4238
     45 H11         5.1502    0.5392   -0.3370 H         1 <0>         0.1384
     46 H12         2.4639   -2.7692   -0.5053 H         1 <0>         0.1360
     47 H13         3.0414   -3.1314   -2.8702 H         1 <0>         0.1288
     48 H14         2.8453   -2.2482   -4.9522 H         1 <0>         0.0395
     49 H15         3.1838   -0.5010   -4.9622 H         1 <0>         0.0750
     50 H16         4.7798   -0.8141   -6.8285 H         1 <0>         0.0729
     51 H17         3.1693   -1.4335   -7.2669 H         1 <0>         0.0694
     52 H18         4.9874   -3.0196   -7.9138 H         1 <0>         0.0664
     53 H19         3.8809   -3.7302   -6.7125 H         1 <0>         0.0594
     54 H20         6.5888   -2.4455   -6.1273 H         1 <0>         0.0729
     55 H21         6.2223   -4.1875   -6.0829 H         1 <0>         0.0698
     56 H22         6.1692   -3.1933   -3.8050 H         1 <0>         0.0763
     57 H23         4.5664   -3.8005   -4.2852 H         1 <0>         0.0402
     58 H24         0.1835   -0.0711    2.3443 H         1 <0>         0.0766
     59 H25         0.6896   -1.3722    1.2382 H         1 <0>         0.0910
     60 H26        -1.1143    0.0975    0.2721 H         1 <0>         0.0761
     61 H27         0.3784    0.0950   -0.6986 H         1 <0>         0.0675
     62 H28        -0.5079    2.4007   -0.3886 H         1 <0>         0.0647
     63 H29        -0.3784    2.2033    1.3754 H         1 <0>         0.0657
     64 H30         1.9422    2.0128   -0.5988 H         1 <0>         0.0670
     65 H31         1.5881    3.4115    0.4446 H         1 <0>         0.0756
     66 H32         1.9104    2.0466    2.4545 H         1 <0>         0.0767
     67 H33         3.3419    1.8779    1.4060 H         1 <0>         0.0894
     68 H34        11.2076    2.9105   -6.9244 H         1 <0>         0.0730
     69 H35        12.7030    3.3847   -6.0833 H         1 <0>         0.0684
     70 H36        11.8300    1.9152   -5.5864 H         1 <0>         0.0668
@<TRIPOS>BOND
     1    1    2 1
     2    1   35 1
     3    1   36 1
     4    1   37 1
     5    2    7 ar
     6    2    3 ar
     7    3    4 ar
     8    3   38 1
     9    4    5 ar
    10    4   34 1
    11    5    6 ar
    12    5   39 1
    13    6    7 ar
    14    6    8 1
    15    7   40 1
    16    8    9 am
    17    8   41 1
    18    9   10 2
    19    9   11 1
    20   11   12 1
    21   11   42 1
    22   11   43 1
    23   12   13 1
    24   12   44 1
    25   13   18 ar
    26   13   14 ar
    27   14   15 ar
    28   14   45 1
    29   15   16 ar
    30   15   25 1
    31   16   17 ar
    32   16   46 1
    33   17   18 ar
    34   17   47 1
    35   18   19 1
    36   19   24 1
    37   19   20 1
    38   20   21 1
    39   20   48 1
    40   20   49 1
    41   21   22 1
    42   21   50 1
    43   21   51 1
    44   22   23 1
    45   22   52 1
    46   22   53 1
    47   23   24 1
    48   23   54 1
    49   23   55 1
    50   24   56 1
    51   24   57 1
    52   25   26 2
    53   25   27 2
    54   25   28 1
    55   28   33 1
    56   28   29 1
    57   29   30 1
    58   29   58 1
    59   29   59 1
    60   30   31 1
    61   30   60 1
    62   30   61 1
    63   31   32 1
    64   31   62 1
    65   31   63 1
    66   32   33 1
    67   32   64 1
    68   32   65 1
    69   33   66 1
    70   33   67 1
    71   34   68 1
    72   34   69 1
    73   34   70 1
@<TRIPOS>MOLECULE
ZINC20570674
   53    56     0     0     0
SMALL
USER_CHARGES
methyl 3-[[3-(p-tolylsulfonylamino)benzoyl]amino]benzothiophene-2-carboxylate
@<TRIPOS>ATOM
      1 C1         -8.9299    6.3757    6.2234 C.3       1 <0>        -0.1290
      2 C2         -9.4017    5.6381    4.9969 C.ar      1 <0>        -0.0241
      3 C3        -10.1022    6.3103    4.0129 C.ar      1 <0>        -0.1421
      4 C4        -10.5350    5.6337    2.8878 C.ar      1 <0>        -0.0128
      5 C5        -10.2666    4.2851    2.7463 C.ar      1 <0>        -0.6846
      6 C6         -9.5702    3.6118    3.7326 C.ar      1 <0>        -0.0122
      7 C7         -9.1337    4.2893    4.8556 C.ar      1 <0>        -0.1427
      8 S1        -10.8182    3.4227    1.3123 S.o2      1 <0>         2.6933
      9 O1        -11.9229    4.1540    0.7984 O.2       1 <0>        -0.9490
     10 O2        -10.9142    2.0520    1.6745 O.2       1 <0>        -0.9496
     11 N1         -9.6125    3.5303    0.1822 N.pl3     1 <0>        -1.0700
     12 C8         -8.3770    2.9225    0.4188 C.ar      1 <0>         0.1449
     13 C9         -8.3243    1.6279    0.9228 C.ar      1 <0>        -0.1284
     14 C10        -7.1046    1.0225    1.1595 C.ar      1 <0>        -0.0997
     15 C11        -5.9305    1.6991    0.8971 C.ar      1 <0>        -0.0913
     16 C12        -5.9723    2.9994    0.3909 C.ar      1 <0>        -0.1130
     17 C13        -7.2035    3.6126    0.1569 C.ar      1 <0>        -0.0697
     18 C14        -4.7164    3.7263    0.1095 C.2       1 <0>         0.5756
     19 O3         -4.7552    4.8585   -0.3313 O.2       1 <0>        -0.5181
     20 N2         -3.5283    3.1339    0.3415 N.am      1 <0>        -0.6830
     21 C15        -2.3496    3.8539    0.1827 C.2       1 <0>         0.2400
     22 C16        -1.9182    4.8093    1.1923 C.ar      1 <0>        -0.1099
     23 C17        -2.5538    5.1483    2.4123 C.ar      1 <0>        -0.0479
     24 C18        -2.0105    6.0743    3.2448 C.ar      1 <0>        -0.1248
     25 C19        -0.8146    6.7124    2.9398 C.ar      1 <0>        -0.0714
     26 C20        -0.1613    6.4070    1.7636 C.ar      1 <0>        -0.0828
     27 C21        -0.7046    5.4715    0.9055 C.ar      1 <0>        -0.0978
     28 S2         -0.2065    4.8047   -0.6613 S.3       1 <0>         0.1343
     29 C22        -1.5621    3.6805   -0.9346 C.2       1 <0>        -0.2123
     30 C23        -1.7787    2.8159   -2.0372 C.2       1 <0>         0.5509
     31 O4         -2.8131    2.1803   -2.1180 O.2       1 <0>        -0.4833
     32 O5         -0.8375    2.6980   -2.9971 O.3       1 <0>        -0.3464
     33 C24        -1.1223    1.8090   -4.0791 C.3       1 <0>         0.0325
     34 H1         -9.2348    7.4305    6.1568 H         1 <0>         0.0723
     35 H2         -7.8336    6.3143    6.2891 H         1 <0>         0.0789
     36 H3         -9.3770    5.9207    7.1195 H         1 <0>         0.0797
     37 H4        -10.3116    7.3640    4.1232 H         1 <0>         0.1342
     38 H5        -11.0826    6.1588    2.1192 H         1 <0>         0.1408
     39 H6         -9.3643    2.5572    3.6241 H         1 <0>         0.1395
     40 H7         -8.5861    3.7642    5.6243 H         1 <0>         0.1334
     41 H8         -9.7844    4.0803   -0.7548 H         1 <0>         0.4577
     42 H9         -9.2396    1.0935    1.1305 H         1 <0>         0.1638
     43 H10        -7.0700    0.0168    1.5514 H         1 <0>         0.1397
     44 H11        -4.9794    1.2226    1.0838 H         1 <0>         0.1287
     45 H12        -7.2422    4.6201   -0.2301 H         1 <0>         0.1422
     46 H13        -3.4911    2.0806    0.6565 H         1 <0>         0.4376
     47 H14        -3.4828    4.6680    2.6817 H         1 <0>         0.1240
     48 H15        -2.5176    6.3168    4.1670 H         1 <0>         0.1326
     49 H16        -0.3990    7.4421    3.6189 H         1 <0>         0.1410
     50 H17         0.7692    6.8962    1.5159 H         1 <0>         0.1399
     51 H18        -0.2783    1.8079   -4.7846 H         1 <0>         0.1086
     52 H19        -2.0332    2.1426   -4.5977 H         1 <0>         0.0647
     53 H20        -1.2745    0.7923   -3.6879 H         1 <0>         0.0650
@<TRIPOS>BOND
     1    1    2 1
     2    1   34 1
     3    1   35 1
     4    1   36 1
     5    2    7 ar
     6    2    3 ar
     7    3    4 ar
     8    3   37 1
     9    4    5 ar
    10    4   38 1
    11    5    6 ar
    12    5    8 1
    13    6    7 ar
    14    6   39 1
    15    7   40 1
    16    8    9 2
    17    8   10 2
    18    8   11 1
    19   11   12 1
    20   11   41 1
    21   12   17 ar
    22   12   13 ar
    23   13   14 ar
    24   13   42 1
    25   14   15 ar
    26   14   43 1
    27   15   16 ar
    28   15   44 1
    29   16   17 ar
    30   16   18 1
    31   17   45 1
    32   18   19 2
    33   18   20 am
    34   20   21 1
    35   20   46 1
    36   21   29 2
    37   21   22 1
    38   22   27 ar
    39   22   23 ar
    40   23   24 ar
    41   23   47 1
    42   24   25 ar
    43   24   48 1
    44   25   26 ar
    45   25   49 1
    46   26   27 ar
    47   26   50 1
    48   27   28 1
    49   28   29 1
    50   29   30 1
    51   30   31 2
    52   30   32 1
    53   32   33 1
    54   33   51 1
    55   33   52 1
    56   33   53 1
@<TRIPOS>MOLECULE
ZINC35918834
   66    69     0     0     0
SMALL
USER_CHARGES

@<TRIPOS>ATOM
      1 C1         -1.8184    1.4700   -2.2249 C.3       1 <0>        -0.1174
      2 C2         -1.3257    0.1640   -1.6567 C.ar      1 <0>        -0.1147
      3 C3         -0.8965   -0.8404   -2.5037 C.ar      1 <0>        -0.0806
      4 C4         -0.4445   -2.0383   -1.9829 C.ar      1 <0>        -0.0819
      5 C5         -0.4212   -2.2334   -0.6143 C.ar      1 <0>        -0.0940
      6 C6         -0.8494   -1.2306    0.2345 C.ar      1 <0>        -0.1468
      7 C7         -1.2975   -0.0281   -0.2860 C.ar      1 <0>         0.0940
      8 F1         -1.7119    0.9548    0.5430 F         1 <0>        -0.1380
      9 C8          0.0227   -3.1327   -2.9075 C.3       1 <0>        -0.0747
     10 H1         -0.0686   -2.7994   -3.9413 H         1 <0>         0.1181
     11 C9         -0.8362   -4.3816   -2.6958 C.3       1 <0>        -0.0899
     12 C10        -0.3838   -5.4829   -3.6573 C.3       1 <0>        -0.1263
     13 H2         -1.0110   -6.3641   -3.5223 H         1 <0>         0.1193
     14 C11         1.0756   -5.8442   -3.3633 C.3       1 <0>         0.1348
     15 N1          1.8869   -4.6207   -3.4226 N.am      1 <0>        -0.6254
     16 C12         1.4869   -3.4668   -2.6055 C.3       1 <0>         0.1161
     17 C13         2.9777   -4.5576   -4.2116 C.2       1 <0>         0.7108
     18 O1          3.3503   -5.5459   -4.8139 O.2       1 <0>        -0.5662
     19 N2          3.6554   -3.3990   -4.3331 N.am      1 <0>        -0.6854
     20 C14         4.7152   -3.3002   -5.2417 C.ar      1 <0>         0.1633
     21 C15         4.6727   -4.0021   -6.4392 C.ar      1 <0>        -0.1175
     22 C16         5.7200   -3.9021   -7.3340 C.ar      1 <0>        -0.0997
     23 C17         6.8101   -3.1042   -7.0385 C.ar      1 <0>        -0.1362
     24 C18         6.8556   -2.4045   -5.8467 C.ar      1 <0>        -0.0994
     25 C19         5.8089   -2.4957   -4.9502 C.ar      1 <0>        -0.1486
     26 C20        -0.5049   -4.9921   -5.0770 C.2       1 <0>         0.5236
     27 O2         -0.9129   -3.8716   -5.2986 O.2       1 <0>        -0.5115
     28 N3         -0.1598   -5.7983   -6.1005 N.am      1 <0>        -0.6657
     29 C21        -0.3610   -5.3782   -7.4217 C.ar      1 <0>         0.1487
     30 C22        -0.2290   -4.0358   -7.7510 C.ar      1 <0>        -0.1138
     31 C23        -0.4271   -3.6196   -9.0537 C.ar      1 <0>        -0.1541
     32 C24        -0.7579   -4.5410  -10.0342 C.ar      1 <0>         0.0871
     33 C25        -0.8909   -5.8871   -9.7074 C.ar      1 <0>         0.1188
     34 C26        -0.6867   -6.3048   -8.4027 C.ar      1 <0>        -0.1982
     35 O3         -1.2155   -6.7922  -10.6690 O.3       1 <0>        -0.3031
     36 C27        -1.3353   -8.1567  -10.2617 C.3       1 <0>         0.0253
     37 O4         -0.9531   -4.1297  -11.3164 O.3       1 <0>        -0.3065
     38 C28        -0.8006   -2.7336  -11.5802 C.3       1 <0>         0.0259
     39 H3         -0.9810    2.1599   -2.3290 H         1 <0>         0.0751
     40 H4         -2.2682    1.2944   -3.2021 H         1 <0>         0.0736
     41 H5         -2.5624    1.9002   -1.5545 H         1 <0>         0.0705
     42 H6         -0.9146   -0.6892   -3.5730 H         1 <0>         0.1331
     43 H7         -0.0685   -3.1700   -0.2085 H         1 <0>         0.1313
     44 H8         -0.8314   -1.3833    1.3035 H         1 <0>         0.1355
     45 H9         -0.7256   -4.7285   -1.6684 H         1 <0>         0.0785
     46 H10        -1.8818   -4.1399   -2.8867 H         1 <0>         0.0807
     47 H11         1.1498   -6.2841   -2.3687 H         1 <0>         0.0873
     48 H12         1.4329   -6.5560   -4.1074 H         1 <0>         0.1003
     49 H13         2.1151   -2.6102   -2.8497 H         1 <0>         0.0781
     50 H14         1.5952   -3.7126   -1.5491 H         1 <0>         0.0783
     51 H15         3.4086   -2.6336   -3.7908 H         1 <0>         0.4055
     52 H16         3.8218   -4.6256   -6.6704 H         1 <0>         0.1329
     53 H17         5.6877   -4.4480   -8.2654 H         1 <0>         0.1246
     54 H18         7.6278   -3.0277   -7.7399 H         1 <0>         0.1232
     55 H19         7.7085   -1.7824   -5.6186 H         1 <0>         0.1261
     56 H20         5.8428   -1.9452   -4.0217 H         1 <0>         0.1234
     57 H21         0.2279   -6.6694   -5.9223 H         1 <0>         0.4108
     58 H22         0.0285   -3.3161   -6.9881 H         1 <0>         0.1425
     59 H23        -0.3243   -2.5750   -9.3078 H         1 <0>         0.1380
     60 H24        -0.7852   -7.3497   -8.1479 H         1 <0>         0.1380
     61 H25        -1.5972   -8.7713  -11.1229 H         1 <0>         0.1020
     62 H26        -0.3861   -8.4969   -9.8477 H         1 <0>         0.0553
     63 H27        -2.1139   -8.2427   -9.5037 H         1 <0>         0.0546
     64 H28        -1.5150   -2.1703  -10.9799 H         1 <0>         0.0547
     65 H29         0.2128   -2.4240  -11.3243 H         1 <0>         0.0548
     66 H30        -0.9831   -2.5415  -12.6375 H         1 <0>         0.1011
@<TRIPOS>BOND
     1    1    2 1
     2    1   39 1
     3    1   40 1
     4    1   41 1
     5    2    7 ar
     6    2    3 ar
     7    3    4 ar
     8    3   42 1
     9    4    5 ar
    10    4    9 1
    11    5    6 ar
    12    5   43 1
    13    6    7 ar
    14    6   44 1
    15    7    8 1
    16    9   10 1
    17    9   16 1
    18    9   11 1
    19   11   12 1
    20   11   45 1
    21   11   46 1
    22   12   13 1
    23   12   14 1
    24   12   26 1
    25   14   15 1
    26   14   47 1
    27   14   48 1
    28   15   16 1
    29   15   17 am
    30   16   49 1
    31   16   50 1
    32   17   18 2
    33   17   19 am
    34   19   20 1
    35   19   51 1
    36   20   25 ar
    37   20   21 ar
    38   21   22 ar
    39   21   52 1
    40   22   23 ar
    41   22   53 1
    42   23   24 ar
    43   23   54 1
    44   24   25 ar
    45   24   55 1
    46   25   56 1
    47   26   27 2
    48   26   28 am
    49   28   29 1
    50   28   57 1
    51   29   34 ar
    52   29   30 ar
    53   30   31 ar
    54   30   58 1
    55   31   32 ar
    56   31   59 1
    57   32   33 ar
    58   32   37 1
    59   33   34 ar
    60   33   35 1
    61   34   60 1
    62   35   36 1
    63   36   61 1
    64   36   62 1
    65   36   63 1
    66   37   38 1
    67   38   64 1
    68   38   65 1
    69   38   66 1
@<TRIPOS>MOLECULE
ZINC40982589
   52    55     0     0     0
SMALL
USER_CHARGES

@<TRIPOS>ATOM
      1 C1          0.8809    1.1964    0.8558 C.3       1 <0>        -0.1459
      2 C2          1.0667   -0.3202    0.9345 C.3       1 <0>        -0.1104
      3 C3          1.5224   -0.8496   -0.4268 C.3       1 <0>        -0.1063
      4 S1          1.7426   -2.6477   -0.3334 S.3       1 <0>         0.0206
      5 C4          2.2611   -3.0985   -1.9559 C.2       1 <0>         0.2213
      6 N1          2.4394   -2.2511   -2.9800 N.2       1 <0>        -0.5412
      7 C5          2.8276   -2.9164   -4.0339 C.2       1 <0>         0.5104
      8 N2          2.9021   -4.2284   -3.7002 N.pl3     1 <0>        -0.3908
      9 N3          2.5414   -4.3200   -2.3567 N.2       1 <0>        -0.2607
     10 C6          3.2959   -5.2790   -4.6352 C.3       1 <0>         0.3328
     11 H1          2.4228   -5.8751   -4.9008 H         1 <0>         0.1358
     12 C7          3.8737   -4.6541   -5.8769 C.2       1 <0>        -0.3031
     13 C8          3.7724   -3.3458   -6.1532 C.2       1 <0>         0.2253
     14 N4          3.1371   -2.4670   -5.3102 N.pl3     1 <0>        -0.6067
     15 C9          4.3761   -2.8223   -7.4309 C.3       1 <0>        -0.1426
     16 C10         4.5561   -5.4862   -6.7954 C.2       1 <0>         0.5945
     17 O1          3.9344   -6.2890   -7.4679 O.2       1 <0>        -0.5024
     18 N5          5.8940   -5.3905   -6.9262 N.am      1 <0>        -0.6673
     19 C11         6.5875   -6.3147   -7.7139 C.ar      1 <0>         0.1340
     20 C12         6.0136   -6.8046   -8.8799 C.ar      1 <0>        -0.1143
     21 C13         6.7012   -7.7174   -9.6555 C.ar      1 <0>        -0.1036
     22 C14         7.9597   -8.1435   -9.2723 C.ar      1 <0>        -0.0968
     23 C15         8.5339   -7.6577   -8.1119 C.ar      1 <0>        -0.1017
     24 C16         7.8541   -6.7404   -7.3348 C.ar      1 <0>        -0.1353
     25 C17         8.7068   -9.1399  -10.1209 C.3       1 <0>        -0.1150
     26 C18         4.3309   -6.1639   -3.9897 C.2       1 <0>        -0.0162
     27 C19         4.1874   -7.4736   -3.7190 C.2       1 <0>        -0.1609
     28 C20         5.3934   -7.9025   -3.1183 C.2       1 <0>        -0.1512
     29 C21         6.2024   -6.8283   -3.0578 C.2       1 <0>        -0.0174
     30 O2          5.5555   -5.7796   -3.5923 O.3       1 <0>        -0.1491
     31 Br1         7.9548   -6.8019   -2.3477 Br        1 <0>         0.0580
     32 H2          1.8265    1.6645    0.5819 H         1 <0>         0.0579
     33 H3          0.1278    1.4317    0.1037 H         1 <0>         0.0581
     34 H4          0.5563    1.5735    1.8255 H         1 <0>         0.0634
     35 H5          1.8198   -0.5555    1.6865 H         1 <0>         0.0745
     36 H6          0.1211   -0.7883    1.2083 H         1 <0>         0.0747
     37 H7          0.7693   -0.6143   -1.1788 H         1 <0>         0.0937
     38 H8          2.4679   -0.3815   -0.7006 H         1 <0>         0.0933
     39 H9          2.9134   -1.5674   -5.5957 H         1 <0>         0.4424
     40 H10         3.6272   -2.8451   -8.2226 H         1 <0>         0.1028
     41 H11         4.7139   -1.7970   -7.2797 H         1 <0>         0.0936
     42 H12         5.2238   -3.4460   -7.7145 H         1 <0>         0.0976
     43 H13         6.3760   -4.6804   -6.4740 H         1 <0>         0.4100
     44 H14         5.0306   -6.4725   -9.1796 H         1 <0>         0.1396
     45 H15         6.2553   -8.0990  -10.5622 H         1 <0>         0.1256
     46 H16         9.5170   -7.9925   -7.8154 H         1 <0>         0.1258
     47 H17         8.3050   -6.3580   -6.4310 H         1 <0>         0.1233
     48 H18         9.3099   -8.6096  -10.8578 H         1 <0>         0.0704
     49 H19         9.3560   -9.7431   -9.4862 H         1 <0>         0.0661
     50 H20         7.9948   -9.7877  -10.6323 H         1 <0>         0.0665
     51 H21         3.3176   -8.0810   -3.9214 H         1 <0>         0.1623
     52 H22         5.6214   -8.9003   -2.7736 H         1 <0>         0.1645
@<TRIPOS>BOND
     1    1    2 1
     2    1   32 1
     3    1   33 1
     4    1   34 1
     5    2    3 1
     6    2   35 1
     7    2   36 1
     8    3    4 1
     9    3   37 1
    10    3   38 1
    11    4    5 1
    12    5    9 2
    13    5    6 1
    14    6    7 2
    15    7   14 1
    16    7    8 1
    17    8    9 1
    18    8   10 1
    19   10   11 1
    20   10   12 1
    21   10   26 1
    22   12   13 2
    23   12   16 1
    24   13   14 1
    25   13   15 1
    26   14   39 1
    27   15   40 1
    28   15   41 1
    29   15   42 1
    30   16   17 2
    31   16   18 am
    32   18   19 1
    33   18   43 1
    34   19   24 ar
    35   19   20 ar
    36   20   21 ar
    37   20   44 1
    38   21   22 ar
    39   21   45 1
    40   22   23 ar
    41   22   25 1
    42   23   24 ar
    43   23   46 1
    44   24   47 1
    45   25   48 1
    46   25   49 1
    47   25   50 1
    48   26   30 1
    49   26   27 2
    50   27   28 1
    51   27   51 1
    52   28   29 2
    53   28   52 1
    54   29   30 1
    55   29   31 1
@<TRIPOS>MOLECULE
ZINC64928186
   61    64     0     0     0
SMALL
USER_CHARGES

@<TRIPOS>ATOM
      1 C1          1.9573   -3.7485   -3.6839 C.3       1 <0>        -0.1403
      2 C2          1.2065   -2.5141   -3.1806 C.3       1 <0>        -0.1426
      3 C3         -0.2120   -2.8928   -2.8408 C.2       1 <0>         0.5123
      4 O1         -0.5856   -4.0374   -2.9868 O.2       1 <0>        -0.5116
      5 N1         -1.0654   -1.9596   -2.3746 N.am      1 <0>        -0.6812
      6 C4         -2.3920   -2.3035   -2.0922 C.ar      1 <0>         0.2043
      7 C5         -3.4164   -1.4062   -2.3644 C.ar      1 <0>        -0.1619
      8 C6         -4.7248   -1.7485   -2.0845 C.ar      1 <0>         0.0008
      9 C7         -5.0153   -2.9833   -1.5338 C.ar      1 <0>        -0.6952
     10 C8         -3.9975   -3.8788   -1.2612 C.ar      1 <0>        -0.0052
     11 C9         -2.6876   -3.5449   -1.5445 C.ar      1 <0>        -0.1365
     12 S1         -6.6859   -3.4162   -1.1782 S.o2      1 <0>         2.6989
     13 O2         -6.6387   -4.4609   -0.2161 O.2       1 <0>        -0.9525
     14 O3         -7.3806   -2.1984   -0.9470 O.2       1 <0>        -0.9483
     15 N2         -7.3261   -4.0718   -2.5576 N.pl3     1 <0>        -0.9914
     16 C10        -7.8807   -3.2211   -3.6236 C.3       1 <0>         0.1202
     17 C11        -7.0217   -3.4131   -4.8725 C.3       1 <0>        -0.1016
     18 C12        -6.7856   -4.8761   -5.1410 C.ar      1 <0>        -0.0622
     19 C13        -6.4073   -5.2424   -6.4271 C.ar      1 <0>        -0.1183
     20 C14        -6.1661   -6.5641   -6.7379 C.ar      1 <0>        -0.1140
     21 C15        -6.2995   -7.5353   -5.7628 C.ar      1 <0>        -0.1169
     22 C16        -6.6782   -7.1750   -4.4861 C.ar      1 <0>        -0.1143
     23 C17        -6.9271   -5.8454   -4.1736 C.ar      1 <0>        -0.0908
     24 C18        -7.3577   -5.5229   -2.7690 C.3       1 <0>         0.2115
     25 H1         -8.3715   -5.8905   -2.6107 H         1 <0>         0.1183
     26 C19        -6.4102   -6.2025   -1.7783 C.3       1 <0>        -0.1698
     27 C20        -7.1771   -6.6043   -0.5448 C.2       1 <0>         0.5653
     28 O4         -8.3772   -6.4358   -0.4951 O.2       1 <0>        -0.5234
     29 N3         -6.5293   -7.1509    0.5031 N.am      1 <0>        -0.6663
     30 C21        -7.2560   -7.7051    1.5633 C.ar      1 <0>         0.1693
     31 C22        -6.7173   -7.7196    2.8432 C.ar      1 <0>        -0.1410
     32 C23        -7.4364   -8.2670    3.8875 C.ar      1 <0>        -0.0873
     33 C24        -8.6926   -8.8008    3.6594 C.ar      1 <0>        -0.0583
     34 C25        -9.2316   -8.7877    2.3850 C.ar      1 <0>        -0.0872
     35 C26        -8.5191   -8.2363    1.3382 C.ar      1 <0>        -0.1190
     36 Cl1        -9.5935   -9.4887    4.9743 Cl        1 <0>        -0.0739
     37 H2          2.9833   -3.4746   -3.9297 H         1 <0>         0.0668
     38 H3          1.9616   -4.5130   -2.9070 H         1 <0>         0.0637
     39 H4          1.4620   -4.1373   -4.5736 H         1 <0>         0.0635
     40 H5          1.7018   -2.1253   -2.2909 H         1 <0>         0.0998
     41 H6          1.2023   -1.7495   -3.9575 H         1 <0>         0.0993
     42 H7         -0.7599   -1.0496   -2.2348 H         1 <0>         0.4168
     43 H8         -3.1902   -0.4415   -2.7941 H         1 <0>         0.1384
     44 H9         -5.5219   -1.0510   -2.2956 H         1 <0>         0.1432
     45 H10        -4.2276   -4.8422   -0.8308 H         1 <0>         0.1412
     46 H11        -1.8937   -4.2467   -1.3361 H         1 <0>         0.1457
     47 H12        -8.9086   -3.5167   -3.8340 H         1 <0>         0.0888
     48 H13        -7.8528   -2.1764   -3.3138 H         1 <0>         0.0986
     49 H14        -7.5295   -2.9690   -5.7286 H         1 <0>         0.0912
     50 H15        -6.0626   -2.9158   -4.7279 H         1 <0>         0.0809
     51 H16        -6.3017   -4.4853   -7.1900 H         1 <0>         0.1224
     52 H17        -5.8733   -6.8399   -7.7402 H         1 <0>         0.1234
     53 H18        -6.1085   -8.5715   -5.9997 H         1 <0>         0.1252
     54 H19        -6.7823   -7.9331   -3.7240 H         1 <0>         0.1251
     55 H20        -5.9756   -7.0888   -2.2407 H         1 <0>         0.1162
     56 H21        -5.6152   -5.5098   -1.5023 H         1 <0>         0.0987
     57 H22        -5.5596   -7.1603    0.5226 H         1 <0>         0.4102
     58 H23        -5.7369   -7.3034    3.0216 H         1 <0>         0.1342
     59 H24        -7.0178   -8.2788    4.8830 H         1 <0>         0.1357
     60 H25       -10.2120   -9.2052    2.2095 H         1 <0>         0.1354
     61 H26        -8.9421   -8.2222    0.3446 H         1 <0>         0.1459
@<TRIPOS>BOND
     1    1    2 1
     2    1   37 1
     3    1   38 1
     4    1   39 1
     5    2    3 1
     6    2   40 1
     7    2   41 1
     8    3    4 2
     9    3    5 am
    10    5    6 1
    11    5   42 1
    12    6   11 ar
    13    6    7 ar
    14    7    8 ar
    15    7   43 1
    16    8    9 ar
    17    8   44 1
    18    9   10 ar
    19    9   12 1
    20   10   11 ar
    21   10   45 1
    22   11   46 1
    23   12   13 2
    24   12   14 2
    25   12   15 1
    26   15   24 1
    27   15   16 1
    28   16   17 1
    29   16   47 1
    30   16   48 1
    31   17   18 1
    32   17   49 1
    33   17   50 1
    34   18   23 ar
    35   18   19 ar
    36   19   20 ar
    37   19   51 1
    38   20   21 ar
    39   20   52 1
    40   21   22 ar
    41   21   53 1
    42   22   23 ar
    43   22   54 1
    44   23   24 1
    45   24   25 1
    46   24   26 1
    47   26   27 1
    48   26   55 1
    49   26   56 1
    50   27   28 2
    51   27   29 am
    52   29   30 1
    53   29   57 1
    54   30   35 ar
    55   30   31 ar
    56   31   32 ar
    57   31   58 1
    58   32   33 ar
    59   32   59 1
    60   33   34 ar
    61   33   36 1
    62   34   35 ar
    63   34   60 1
    64   35   61 1
@<TRIPOS>MOLECULE
ZINC14254139
   65    68     0     0     0
SMALL
USER_CHARGES
ethyl 2-[[2-(7-azabicyclo[2.2.1]heptan-7-yl)acetyl]amino]-5-[(2,4-dimethylphenyl)carbamoyl]-4-methyl-thiophene-3-carboxylate
@<TRIPOS>ATOM
      1 C1          6.1136   -6.5906    3.1690 C.3       1 <0>        -0.1550
      2 C2          6.0304   -6.1218    1.7150 C.3       1 <0>         0.0585
      3 O1          5.6987   -4.7087    1.6803 O.3       1 <0>        -0.3482
      4 C3          5.5865   -4.1358    0.4648 C.2       1 <0>         0.5244
      5 O2          5.7613   -4.7999   -0.5388 O.2       1 <0>        -0.4810
      6 C4          5.2535   -2.7113    0.3531 C.2       1 <0>        -0.1840
      7 C5          3.9354   -2.2867    0.2770 C.2       1 <0>         0.0220
      8 C6          3.7059   -0.9415    0.1749 C.2       1 <0>        -0.2700
      9 S1          5.3536   -0.2610    0.1781 S.3       1 <0>         0.2964
     10 C7          6.2547   -1.7348    0.3201 C.2       1 <0>         0.0674
     11 N1          7.6242   -1.9039    0.3801 N.am      1 <0>        -0.5936
     12 C8          8.4384   -0.8308    0.3338 C.2       1 <0>         0.5023
     13 O3          7.9686    0.2831    0.2395 O.2       1 <0>        -0.4879
     14 C9          9.9326   -1.0153    0.3993 C.3       1 <0>        -0.0189
     15 C10        10.7055    0.7690   -1.0948 C.3       1 <0>         0.0242
     16 C11        11.6089   -0.3688   -1.6987 C.3       1 <0>        -0.1529
     17 C12        12.5315   -0.7587   -0.5179 C.3       1 <0>        -0.1518
     18 C13        12.0619    0.1779    0.6359 C.3       1 <0>         0.0291
     19 C14        12.5614    1.6034    0.2521 C.3       1 <0>        -0.1483
     20 C15        11.6390    2.0054   -0.9248 C.3       1 <0>        -0.1459
     21 C16         2.4260   -0.2371    0.0802 C.2       1 <0>         0.6062
     22 O4          1.3834   -0.8655    0.0869 O.2       1 <0>        -0.4916
     23 N2          2.4021    1.1072   -0.0145 N.am      1 <0>        -0.6625
     24 C17         1.1799    1.7867   -0.0100 C.ar      1 <0>         0.1285
     25 C18         0.0638    1.2157   -0.6083 C.ar      1 <0>        -0.1084
     26 C19        -1.1403    1.8918   -0.6068 C.ar      1 <0>        -0.1070
     27 C20        -1.2385    3.1310   -0.0004 C.ar      1 <0>        -0.0871
     28 C21        -0.1295    3.7021    0.5960 C.ar      1 <0>        -0.1038
     29 C22         1.0793    3.0337    0.5929 C.ar      1 <0>        -0.1035
     30 C23         2.2874    3.6567    1.2436 C.3       1 <0>        -0.1164
     31 C24        -2.5557    3.8631    0.0049 C.3       1 <0>        -0.1173
     32 C25         2.7957   -3.2722    0.3062 C.3       1 <0>        -0.1214
     33 H1          6.8850   -6.0235    3.6900 H         1 <0>         0.0659
     34 H2          5.1526   -6.4309    3.6578 H         1 <0>         0.0714
     35 H3          6.3627   -7.6515    3.1950 H         1 <0>         0.0866
     36 H4          5.2591   -6.6890    1.1940 H         1 <0>         0.0775
     37 H5          6.9915   -6.2815    1.2261 H         1 <0>         0.0723
     38 H6          8.0001   -2.7949    0.4556 H         1 <0>         0.4303
     39 H7         10.1974   -1.5065    1.3357 H         1 <0>         0.1709
     40 H8         10.2599   -1.6305   -0.4389 H         1 <0>         0.1651
     41 H9          9.7637    0.9460   -1.6142 H         1 <0>         0.1757
     42 H10        12.1954    0.0160   -2.5330 H         1 <0>         0.1169
     43 H11        11.0084   -1.2219   -2.0144 H         1 <0>         0.0975
     44 H12        13.5752   -0.5672   -0.7669 H         1 <0>         0.1173
     45 H13        12.3888   -1.8044   -0.2454 H         1 <0>         0.0999
     46 H14        12.3138   -0.1537    1.6433 H         1 <0>         0.1797
     47 H15        12.4381    2.2914    1.0885 H         1 <0>         0.1025
     48 H16        13.6023    1.5716   -0.0697 H         1 <0>         0.1172
     49 H17        12.2227    2.1728   -1.8300 H         1 <0>         0.1159
     50 H18        11.0583    2.8932   -0.6744 H         1 <0>         0.1031
     51 H19         3.2326    1.6032   -0.0858 H         1 <0>         0.4056
     52 H20         0.1388    0.2461   -1.0781 H         1 <0>         0.1408
     53 H21        -2.0073    1.4504   -1.0757 H         1 <0>         0.1281
     54 H22        -0.2084    4.6720    1.0644 H         1 <0>         0.1280
     55 H23         2.8258    4.2572    0.5104 H         1 <0>         0.0717
     56 H24         1.9680    4.2921    2.0697 H         1 <0>         0.0749
     57 H25         2.9421    2.8714    1.6213 H         1 <0>         0.0603
     58 H26        -2.6265    4.4900   -0.8840 H         1 <0>         0.0726
     59 H27        -3.3725    3.1414    0.0065 H         1 <0>         0.0687
     60 H28        -2.6208    4.4875    0.8959 H         1 <0>         0.0677
     61 H29         2.5569   -3.5818   -0.7113 H         1 <0>         0.0892
     62 H30         3.0844   -4.1442    0.8930 H         1 <0>         0.0671
     63 H31         1.9215   -2.8034    0.7580 H         1 <0>         0.1058
     64 N3         10.6520    0.3142    0.2780 N.4       1 <0>        -0.3818
     65 H32        10.1866    1.0078    0.8751 H         1 <0>         0.4337
@<TRIPOS>BOND
     1    1    2 1
     2    1   33 1
     3    1   34 1
     4    1   35 1
     5    2    3 1
     6    2   36 1
     7    2   37 1
     8    3    4 1
     9    4    5 2
    10    4    6 1
    11    6   10 2
    12    6    7 1
    13    7    8 2
    14    7   32 1
    15    8    9 1
    16    8   21 1
    17    9   10 1
    18   10   11 1
    19   11   12 am
    20   11   38 1
    21   12   13 2
    22   12   14 1
    23   14   39 1
    24   14   40 1
    25   14   64 1
    26   15   20 1
    27   15   16 1
    28   15   41 1
    29   15   64 1
    30   16   17 1
    31   16   42 1
    32   16   43 1
    33   17   18 1
    34   17   44 1
    35   17   45 1
    36   18   19 1
    37   18   46 1
    38   18   64 1
    39   19   20 1
    40   19   47 1
    41   19   48 1
    42   20   49 1
    43   20   50 1
    44   21   22 2
    45   21   23 am
    46   23   24 1
    47   23   51 1
    48   24   29 ar
    49   24   25 ar
    50   25   26 ar
    51   25   52 1
    52   26   27 ar
    53   26   53 1
    54   27   28 ar
    55   27   31 1
    56   28   29 ar
    57   28   54 1
    58   29   30 1
    59   30   55 1
    60   30   56 1
    61   30   57 1
    62   31   58 1
    63   31   59 1
    64   31   60 1
    65   32   61 1
    66   32   62 1
    67   32   63 1
    68   64   65 1
@<TRIPOS>MOLECULE
ZINC29904093
   64    67     0     0     0
SMALL
USER_CHARGES
N-(2-methoxyphenyl)-1-[2-oxo-2-(2-phenylsulfanylanilino)ethyl]piperidine-4-carboxamide
@<TRIPOS>ATOM
      1 C1          2.1389    3.1838    2.5491 C.3       1 <0>         0.0247
      2 O1          1.1528    3.3623    3.5678 O.3       1 <0>        -0.3251
      3 C2          1.5108    3.0338    4.8378 C.ar      1 <0>         0.1003
      4 C3          2.7830    2.5503    5.0976 C.ar      1 <0>        -0.1871
      5 C4          3.1457    2.2172    6.3894 C.ar      1 <0>        -0.0906
      6 C5          2.2416    2.3650    7.4253 C.ar      1 <0>        -0.1336
      7 C6          0.9708    2.8465    7.1745 C.ar      1 <0>        -0.0980
      8 C7          0.6014    3.1879    5.8816 C.ar      1 <0>         0.1122
      9 N1         -0.6847    3.6817    5.6257 N.am      1 <0>        -0.6658
     10 C8         -1.3901    4.2685    6.6129 C.2       1 <0>         0.5146
     11 O2         -0.8781    4.4532    7.6969 O.2       1 <0>        -0.5153
     12 C9         -2.8148    4.6951    6.3700 C.3       1 <0>        -0.1201
     13 C10        -2.8550    5.7223    5.2352 C.3       1 <0>        -0.1354
     14 C11        -4.2960    6.1969    5.0341 C.3       1 <0>        -0.0197
     15 N2         -4.7934    6.7965    6.2788 N.4       1 <0>        -0.3878
     16 C12        -4.8086    5.8157    7.3716 C.3       1 <0>        -0.0017
     17 C13        -3.3830    5.3296    7.6425 C.3       1 <0>        -0.1278
     18 C14        -6.1240    7.3876    6.0835 C.3       1 <0>        -0.0272
     19 C15        -6.0654    8.3989    4.9677 C.2       1 <0>         0.5037
     20 O3         -4.9971    8.7037    4.4808 O.2       1 <0>        -0.5102
     21 N3         -7.2002    8.9646    4.5107 N.am      1 <0>        -0.6521
     22 C16        -7.1604    9.8137    3.3969 C.ar      1 <0>         0.1838
     23 C17        -6.0518    9.8169    2.5641 C.ar      1 <0>        -0.1501
     24 C18        -6.0149   10.6548    1.4652 C.ar      1 <0>        -0.0652
     25 C19        -7.0814   11.4922    1.1925 C.ar      1 <0>        -0.1337
     26 C20        -8.1906   11.4961    2.0167 C.ar      1 <0>        -0.0388
     27 C21        -8.2386   10.6544    3.1192 C.ar      1 <0>        -0.1699
     28 S1         -9.6545   10.6517    4.1680 S.3       1 <0>         0.0030
     29 C22       -10.5633    9.2325    3.6534 C.ar      1 <0>        -0.1190
     30 C23       -10.0424    8.3865    2.6816 C.ar      1 <0>        -0.1277
     31 C24       -10.7547    7.2719    2.2854 C.ar      1 <0>        -0.1032
     32 C25       -11.9904    7.0035    2.8457 C.ar      1 <0>        -0.1143
     33 C26       -12.5146    7.8467    3.8086 C.ar      1 <0>        -0.0989
     34 C27       -11.8053    8.9597    4.2143 C.ar      1 <0>        -0.0924
     35 H1          1.7208    3.4852    1.5773 H         1 <0>         0.1047
     36 H2          2.4362    2.1255    2.5080 H         1 <0>         0.0601
     37 H3          3.0186    3.8033    2.7778 H         1 <0>         0.0595
     38 H4          3.4916    2.4341    4.2909 H         1 <0>         0.1348
     39 H5          4.1379    1.8408    6.5901 H         1 <0>         0.1301
     40 H6          2.5293    2.1031    8.4328 H         1 <0>         0.1306
     41 H7          0.2668    2.9609    7.9854 H         1 <0>         0.1519
     42 H8         -1.1187    3.5904    4.6191 H         1 <0>         0.4376
     43 H9         -3.4022    3.8063    6.0961 H         1 <0>         0.1185
     44 H10        -2.2173    6.5803    5.4945 H         1 <0>         0.0990
     45 H11        -2.4869    5.2589    4.3079 H         1 <0>         0.1170
     46 H12        -4.3264    6.9460    4.2291 H         1 <0>         0.1563
     47 H13        -4.9296    5.3400    4.7617 H         1 <0>         0.1260
     48 H14        -5.2142    6.2851    8.2800 H         1 <0>         0.1396
     49 H15        -5.4394    4.9604    7.0879 H         1 <0>         0.1312
     50 H16        -3.3956    4.5831    8.4503 H         1 <0>         0.1237
     51 H17        -2.7537    6.1813    7.9401 H         1 <0>         0.1011
     52 H18        -6.8423    6.5960    5.8237 H         1 <0>         0.1599
     53 H19        -6.4447    7.8836    7.0115 H         1 <0>         0.1682
     54 H20        -8.1576    8.7597    5.0122 H         1 <0>         0.4486
     55 H21        -5.2171    9.1644    2.7738 H         1 <0>         0.1626
     56 H22        -5.1508   10.6553    0.8174 H         1 <0>         0.1370
     57 H23        -7.0473   12.1448    0.3326 H         1 <0>         0.1377
     58 H24        -9.0219   12.1508    1.8003 H         1 <0>         0.1427
     59 H25        -9.0796    8.5978    2.2404 H         1 <0>         0.1201
     60 H26       -10.3484    6.6113    1.5337 H         1 <0>         0.1256
     61 H27       -12.5474    6.1337    2.5303 H         1 <0>         0.1288
     62 H28       -13.4798    7.6340    4.2440 H         1 <0>         0.1328
     63 H29       -12.2153    9.6176    4.9662 H         1 <0>         0.1313
     64 H30        -4.1015    7.6034    6.5620 H         1 <0>         0.4517
@<TRIPOS>BOND
     1    1    2 1
     2    1   35 1
     3    1   36 1
     4    1   37 1
     5    2    3 1
     6    3    8 ar
     7    3    4 ar
     8    4    5 ar
     9    4   38 1
    10    5    6 ar
    11    5   39 1
    12    6    7 ar
    13    6   40 1
    14    7    8 ar
    15    7   41 1
    16    8    9 1
    17    9   10 am
    18    9   42 1
    19   10   11 2
    20   10   12 1
    21   12   17 1
    22   12   13 1
    23   12   43 1
    24   13   14 1
    25   13   44 1
    26   13   45 1
    27   14   15 1
    28   14   46 1
    29   14   47 1
    30   15   16 1
    31   15   18 1
    32   15   64 1
    33   16   17 1
    34   16   48 1
    35   16   49 1
    36   17   50 1
    37   17   51 1
    38   18   19 1
    39   18   52 1
    40   18   53 1
    41   19   20 2
    42   19   21 am
    43   21   22 1
    44   21   54 1
    45   22   27 ar
    46   22   23 ar
    47   23   24 ar
    48   23   55 1
    49   24   25 ar
    50   24   56 1
    51   25   26 ar
    52   25   57 1
    53   26   27 ar
    54   26   58 1
    55   27   28 1
    56   28   29 1
    57   29   34 ar
    58   29   30 ar
    59   30   31 ar
    60   30   59 1
    61   31   32 ar
    62   31   60 1
    63   32   33 ar
    64   32   61 1
    65   33   34 ar
    66   33   62 1
    67   34   63 1
@<TRIPOS>MOLECULE
ZINC38547532
   65    68     0     0     0
SMALL
USER_CHARGES

@<TRIPOS>ATOM
      1 C1         -1.0009    0.6828    5.7195 C.3       1 <0>        -0.1414
      2 C2         -1.0886   -0.7574    5.2846 C.ar      1 <0>         0.1857
      3 C3         -1.7490   -1.6710    6.0819 C.ar      1 <0>        -0.1728
      4 C4         -1.8267   -2.9965    5.6763 C.ar      1 <0>         0.0423
      5 C5         -1.2351   -3.3563    4.4786 C.ar      1 <0>        -0.2012
      6 C6         -0.5860   -2.3834    3.7257 C.ar      1 <0>         0.4539
      7 N1         -0.5380   -1.1280    4.1442 N.ar      1 <0>        -0.5035
      8 N2          0.0133   -2.7311    2.5206 N.pl3     1 <0>        -0.6890
      9 C7         -0.0619   -4.1118    2.0366 C.3       1 <0>         0.2675
     10 H1          0.1520   -4.7966    2.8572 H         1 <0>         0.1053
     11 C8          0.9485   -4.3144    0.9369 C.ar      1 <0>        -0.0759
     12 C9          1.4048   -3.2308    0.2091 C.ar      1 <0>        -0.1501
     13 C10         2.3313   -3.4131   -0.8001 C.ar      1 <0>        -0.0702
     14 C11         2.8058   -4.6800   -1.0868 C.ar      1 <0>        -0.1866
     15 C12         2.3528   -5.7697   -0.3615 C.ar      1 <0>         0.1236
     16 C13         1.4243   -5.5853    0.6590 C.ar      1 <0>         0.0839
     17 O1          0.9807   -6.6513    1.3776 O.3       1 <0>        -0.3254
     18 C14        -0.0485   -7.4482    0.7879 C.3       1 <0>         0.0304
     19 O2          2.8184   -7.0163   -0.6421 O.3       1 <0>        -0.3026
     20 C15         3.7740   -7.1293   -1.6985 C.3       1 <0>         0.0215
     21 C16        -1.4453   -4.3828    1.5039 C.2       1 <0>        -0.2036
     22 C17        -2.0334   -3.5175    0.5998 C.2       1 <0>        -0.0975
     23 C18        -3.2784   -3.7909    0.1408 C.2       1 <0>        -0.1794
     24 S1         -3.6639   -5.3121    0.9916 S.3       1 <0>         0.1865
     25 C19        -2.1371   -5.4879    1.9001 C.2       1 <0>         0.0885
     26 N3         -1.7526   -6.4949    2.7877 N.am      1 <0>        -0.6293
     27 C20        -2.5576   -7.5564    2.9922 C.2       1 <0>         0.5578
     28 O3         -3.5650   -7.6927    2.3253 O.2       1 <0>        -0.4865
     29 C21        -2.2156   -8.5547    4.0271 C.ar      1 <0>        -0.1463
     30 C22        -1.1276   -8.3408    4.8751 C.ar      1 <0>        -0.0858
     31 C23        -0.8141   -9.2764    5.8392 C.ar      1 <0>        -0.1232
     32 C24        -1.5754  -10.4247    5.9667 C.ar      1 <0>        -0.0795
     33 C25        -2.6548  -10.6431    5.1291 C.ar      1 <0>        -0.1216
     34 C26        -2.9827   -9.7129    4.1646 C.ar      1 <0>        -0.0499
     35 C27        -4.1208   -3.0114   -0.8358 C.3       1 <0>        -0.0709
     36 C28        -1.2998   -2.2871    0.1319 C.3       1 <0>        -0.1115
     37 H2         -1.8600    1.2317    5.3338 H         1 <0>         0.1139
     38 H3         -0.9961    0.7338    6.8083 H         1 <0>         0.1176
     39 H4         -0.0832    1.1244    5.3310 H         1 <0>         0.0943
     40 H5         -2.2002   -1.3577    7.0118 H         1 <0>         0.1806
     41 H6         -2.3374   -3.7303    6.2822 H         1 <0>         0.1736
     42 H7         -1.2762   -4.3787    4.1332 H         1 <0>         0.1642
     43 H8          0.4812   -2.0595    2.0001 H         1 <0>         0.4192
     44 H9          1.0361   -2.2399    0.4295 H         1 <0>         0.1256
     45 H10         2.6853   -2.5643   -1.3664 H         1 <0>         0.1373
     46 H11         3.5293   -4.8198   -1.8764 H         1 <0>         0.1411
     47 H12        -0.4025   -8.1799    1.5141 H         1 <0>         0.0905
     48 H13        -0.8762   -6.8069    0.4853 H         1 <0>         0.0506
     49 H14         0.3483   -7.9658   -0.0855 H         1 <0>         0.0555
     50 H15         4.0617   -8.1738   -1.8180 H         1 <0>         0.1086
     51 H16         3.3341   -6.7651   -2.6269 H         1 <0>         0.0600
     52 H17         4.6552   -6.5352   -1.4564 H         1 <0>         0.0611
     53 H18        -0.9062   -6.4305    3.2571 H         1 <0>         0.4174
     54 H19        -0.5323   -7.4451    4.7764 H         1 <0>         0.1206
     55 H20         0.0276   -9.1123    6.4957 H         1 <0>         0.1340
     56 H21        -1.3257  -11.1540    6.7232 H         1 <0>         0.1343
     57 H22        -3.2448  -11.5417    5.2337 H         1 <0>         0.1372
     58 H23        -3.8284   -9.8822    3.5146 H         1 <0>         0.1405
     59 H24        -3.9195   -3.3603   -1.8486 H         1 <0>         0.0817
     60 H25        -5.1756   -3.1583   -0.6038 H         1 <0>         0.0756
     61 H26        -3.8766   -1.9517   -0.7612 H         1 <0>         0.0796
     62 H27        -0.6281   -2.5531   -0.6844 H         1 <0>         0.0808
     63 H28        -2.0189   -1.5457   -0.2163 H         1 <0>         0.0713
     64 H29        -0.7217   -1.8727    0.9578 H         1 <0>         0.0525
     65 H30        -0.0837   -0.4652    3.6009 H         1 <0>         0.4379
@<TRIPOS>BOND
     1    1    2 1
     2    1   37 1
     3    1   38 1
     4    1   39 1
     5    2    7 ar
     6    2    3 ar
     7    3    4 ar
     8    3   40 1
     9    4    5 ar
    10    4   41 1
    11    5    6 ar
    12    5   42 1
    13    6    7 ar
    14    6    8 1
    15    7   65 1
    16    8    9 1
    17    8   43 1
    18    9   10 1
    19    9   11 1
    20    9   21 1
    21   11   16 ar
    22   11   12 ar
    23   12   13 ar
    24   12   44 1
    25   13   14 ar
    26   13   45 1
    27   14   15 ar
    28   14   46 1
    29   15   16 ar
    30   15   19 1
    31   16   17 1
    32   17   18 1
    33   18   47 1
    34   18   48 1
    35   18   49 1
    36   19   20 1
    37   20   50 1
    38   20   51 1
    39   20   52 1
    40   21   25 2
    41   21   22 1
    42   22   23 2
    43   22   36 1
    44   23   24 1
    45   23   35 1
    46   24   25 1
    47   25   26 1
    48   26   27 am
    49   26   53 1
    50   27   28 2
    51   27   29 1
    52   29   34 ar
    53   29   30 ar
    54   30   31 ar
    55   30   54 1
    56   31   32 ar
    57   31   55 1
    58   32   33 ar
    59   32   56 1
    60   33   34 ar
    61   33   57 1
    62   34   58 1
    63   35   59 1
    64   35   60 1
    65   35   61 1
    66   36   62 1
    67   36   63 1
    68   36   64 1
@<TRIPOS>MOLECULE
ZINC38550662
   63    67     0     0     0
SMALL
USER_CHARGES

@<TRIPOS>ATOM
      1 C1          0.3009    2.2618   -0.5952 C.3       1 <0>         0.0237
      2 O1          0.2164    0.8495   -0.3938 O.3       1 <0>        -0.3093
      3 C2          0.7485    0.0557   -1.3600 C.ar      1 <0>         0.1858
      4 C3          1.3450    0.6252   -2.4763 C.ar      1 <0>        -0.2356
      5 C4          1.8861   -0.1814   -3.4589 C.ar      1 <0>        -0.0411
      6 C5          1.8346   -1.5566   -3.3332 C.ar      1 <0>        -0.1722
      7 C6          1.2393   -2.1308   -2.2191 C.ar      1 <0>         0.1936
      8 C7          0.7010   -1.3234   -1.2286 C.ar      1 <0>        -0.2344
      9 O2          1.1889   -3.4832   -2.0961 O.3       1 <0>        -0.3131
     10 C8          0.5612   -4.0050   -0.9231 C.3       1 <0>         0.0238
     11 C9          2.4249   -2.4335   -4.4073 C.3       1 <0>         0.2748
     12 H1          2.9068   -3.2964   -3.9478 H         1 <0>         0.1001
     13 C10         1.3303   -2.9022   -5.3310 C.2       1 <0>        -0.1937
     14 C11         0.7545   -2.0140   -6.2402 C.2       1 <0>        -0.0897
     15 C12        -0.2270   -2.5114   -7.0394 C.2       1 <0>        -0.1823
     16 S1         -0.3617   -4.2081   -6.5434 S.3       1 <0>         0.1889
     17 C13         0.9055   -4.1930   -5.2843 C.2       1 <0>         0.0876
     18 N1          1.3440   -5.2347   -4.4643 N.am      1 <0>        -0.6150
     19 C14         0.7180   -6.4278   -4.4978 C.2       1 <0>         0.6054
     20 O3         -0.1665   -6.6285   -5.3097 O.2       1 <0>        -0.4770
     21 C15         1.1023   -7.4840   -3.5562 C.2       1 <0>        -0.0999
     22 C16         0.6230   -8.7627   -3.5453 C.2       1 <0>        -0.0926
     23 C17         1.2602   -9.4235   -2.4834 C.2       1 <0>        -0.2221
     24 C18         2.0901   -8.5307   -1.9001 C.2       1 <0>         0.0110
     25 O4          1.9959   -7.3646   -2.5525 O.3       1 <0>        -0.1678
     26 C19        -1.0042   -1.7835   -8.0881 C.3       1 <0>        -0.0415
     27 C20        -0.7886   -0.2755   -7.8894 C.3       1 <0>        -0.1143
     28 C21         0.7096   -0.0129   -7.7118 C.3       1 <0>        -0.1207
     29 C22         1.1788   -0.5531   -6.3604 C.3       1 <0>        -0.0639
     30 N2          3.4151   -1.6704   -5.1712 N.pl3     1 <0>        -0.6891
     31 C23         4.3635   -2.3357   -5.9392 C.ar      1 <0>         0.4501
     32 C24         4.3017   -3.7201   -6.0643 C.ar      1 <0>        -0.1926
     33 C25         5.2517   -4.3692   -6.8316 C.ar      1 <0>         0.0375
     34 C26         6.2358   -3.6093   -7.4506 C.ar      1 <0>        -0.1688
     35 C27         6.2372   -2.2393   -7.2835 C.ar      1 <0>         0.1477
     36 N3          5.3145   -1.6459   -6.5497 N.ar      1 <0>        -0.5031
     37 H2          1.3477    2.5558   -0.6722 H         1 <0>         0.0603
     38 H3         -0.2203    2.5296   -1.5143 H         1 <0>         0.0609
     39 H4         -0.1602    2.7771    0.2474 H         1 <0>         0.1083
     40 H5          1.3859    1.6997   -2.5771 H         1 <0>         0.1377
     41 H6          2.3499    0.2637   -4.3268 H         1 <0>         0.1238
     42 H7          0.2412   -1.7684   -0.3586 H         1 <0>         0.1452
     43 H8          0.5888   -5.0943   -0.9503 H         1 <0>         0.1045
     44 H9          1.0909   -3.6501   -0.0391 H         1 <0>         0.0645
     45 H10        -0.4749   -3.6686   -0.8853 H         1 <0>         0.0631
     46 H11         2.0991   -5.0997   -3.8707 H         1 <0>         0.4207
     47 H12        -0.1056   -9.1838   -4.2222 H         1 <0>         0.1656
     48 H13         1.1144  -10.4520   -2.1879 H         1 <0>         0.1640
     49 H14         2.7273   -8.7262   -1.0504 H         1 <0>         0.2169
     50 H15        -0.6520   -2.0777   -9.0768 H         1 <0>         0.0845
     51 H16        -2.0638   -2.0192   -7.9899 H         1 <0>         0.0848
     52 H17        -1.1534    0.2643   -8.7633 H         1 <0>         0.0772
     53 H18        -1.3259    0.0567   -7.0010 H         1 <0>         0.0699
     54 H19         1.2609   -0.5087   -8.5108 H         1 <0>         0.0635
     55 H20         0.8966    1.0600   -7.7572 H         1 <0>         0.0697
     56 H21         0.7239    0.0267   -5.5572 H         1 <0>         0.0828
     57 H22         2.2645   -0.4815   -6.2956 H         1 <0>         0.0562
     58 H23         3.4088   -0.7009   -5.1409 H         1 <0>         0.4174
     59 H24         3.5225   -4.2802   -5.5687 H         1 <0>         0.1663
     60 H25         5.2292   -5.4428   -6.9465 H         1 <0>         0.1727
     61 H26         6.9925   -4.0857   -8.0563 H         1 <0>         0.1813
     62 H27         7.0008   -1.6446   -7.7628 H         1 <0>         0.2075
     63 H28         5.3361   -0.6811   -6.4519 H         1 <0>         0.4408
@<TRIPOS>BOND
     1    1    2 1
     2    1   37 1
     3    1   38 1
     4    1   39 1
     5    2    3 1
     6    3    8 ar
     7    3    4 ar
     8    4    5 ar
     9    4   40 1
    10    5    6 ar
    11    5   41 1
    12    6    7 ar
    13    6   11 1
    14    7    8 ar
    15    7    9 1
    16    8   42 1
    17    9   10 1
    18   10   43 1
    19   10   44 1
    20   10   45 1
    21   11   12 1
    22   11   13 1
    23   11   30 1
    24   13   17 2
    25   13   14 1
    26   14   29 1
    27   14   15 2
    28   15   16 1
    29   15   26 1
    30   16   17 1
    31   17   18 1
    32   18   19 am
    33   18   46 1
    34   19   20 2
    35   19   21 1
    36   21   25 1
    37   21   22 2
    38   22   23 1
    39   22   47 1
    40   23   24 2
    41   23   48 1
    42   24   25 1
    43   24   49 1
    44   26   27 1
    45   26   50 1
    46   26   51 1
    47   27   28 1
    48   27   52 1
    49   27   53 1
    50   28   29 1
    51   28   54 1
    52   28   55 1
    53   29   56 1
    54   29   57 1
    55   30   31 1
    56   30   58 1
    57   31   36 ar
    58   31   32 ar
    59   32   33 ar
    60   32   59 1
    61   33   34 ar
    62   33   60 1
    63   34   35 ar
    64   34   61 1
    65   35   36 ar
    66   35   62 1
    67   36   63 1
@<TRIPOS>MOLECULE
ZINC64220377
   52    55     0     0     0
SMALL
USER_CHARGES

@<TRIPOS>ATOM
      1 C1         -0.0704    1.4512   -0.4110 C.ar      1 <0>        -0.1477
      2 C2          1.1190    2.1919   -0.3738 C.ar      1 <0>         0.0531
      3 C3          2.3295    1.6195   -0.2031 C.ar      1 <0>        -0.2075
      4 C4          2.4431    0.2099   -0.0516 C.ar      1 <0>         0.3279
      5 N1          3.4836   -0.5682    0.1229 N.pl3     1 <0>        -0.5824
      6 C5          3.0188   -1.9566    0.2178 C.3       1 <0>         0.0582
      7 C6          1.5145   -1.9012    0.0720 C.2       1 <0>         0.0757
      8 C7          1.2013   -0.5951   -0.0873 C.ar      1 <0>        -0.1697
      9 C8         -0.0746    0.1055   -0.2766 C.ar      1 <0>        -0.0153
     10 C9          0.5582   -3.0656    0.0981 C.3       1 <0>        -0.1115
     11 C10         0.4643   -3.6798   -1.3001 C.3       1 <0>         0.1484
     12 H1          0.1893   -2.9076   -2.0185 H         1 <0>         0.1292
     13 C11        -0.5821   -4.7643   -1.3031 C.2       1 <0>         0.4968
     14 O1         -0.2497   -5.9280   -1.2236 O.2       1 <0>        -0.4650
     15 N2         -1.8874   -4.4410   -1.3942 N.am      1 <0>        -0.6677
     16 C12        -2.8527   -5.4500   -1.5084 C.ar      1 <0>         0.1221
     17 C13        -4.1091   -5.2764   -0.9436 C.ar      1 <0>        -0.1034
     18 C14        -5.0602   -6.2711   -1.0569 C.ar      1 <0>        -0.1018
     19 C15        -4.7604   -7.4438   -1.7345 C.ar      1 <0>         0.0993
     20 C16        -3.5052   -7.6182   -2.2987 C.ar      1 <0>        -0.1684
     21 C17        -2.5552   -6.6217   -2.1914 C.ar      1 <0>        -0.0761
     22 O2         -5.6972   -8.4231   -1.8454 O.3       1 <0>        -0.3089
     23 C18        -5.3204   -9.6039   -2.5564 C.3       1 <0>         0.6042
     24 F1         -4.2258  -10.2010   -1.9219 F         1 <0>        -0.1633
     25 F2         -6.3946  -10.5000   -2.5747 F         1 <0>        -0.1268
     26 F3         -4.9719   -9.2668   -3.8687 F         1 <0>        -0.1642
     27 N3          1.7613   -4.2517   -1.6703 N.am      1 <0>        -0.7315
     28 C19         2.3049   -5.2307   -0.9204 C.2       1 <0>         0.6124
     29 O3          1.7183   -5.6398    0.0644 O.2       1 <0>        -0.4831
     30 C20         3.6026   -5.8029   -1.2908 C.2       1 <0>        -0.2791
     31 C21         4.3248   -6.8083   -0.6662 C.2       1 <0>        -0.0480
     32 C22         5.5239   -7.1348   -1.2530 C.2       1 <0>        -0.1865
     33 C23         5.9122   -6.4732   -2.3711 C.2       1 <0>        -0.2016
     34 S1          4.6600   -5.3929   -2.6663 S.3       1 <0>         0.1913
     35 H2         -1.0084    1.9692   -0.5461 H         1 <0>         0.1587
     36 H3          1.0648    3.2646   -0.4868 H         1 <0>         0.1611
     37 H4          3.2166    2.2352   -0.1817 H         1 <0>         0.1607
     38 H5          3.4523   -2.5536   -0.5845 H         1 <0>         0.1675
     39 H6          3.2871   -2.3771    1.1870 H         1 <0>         0.1754
     40 H7         -1.0030   -0.4455   -0.3080 H         1 <0>         0.1611
     41 H8          0.9188   -3.8163    0.8013 H         1 <0>         0.1414
     42 H9         -0.4273   -2.7195    0.4098 H         1 <0>         0.1256
     43 H10        -2.1584   -3.5097   -1.3807 H         1 <0>         0.4104
     44 H11        -4.3424   -4.3637   -0.4154 H         1 <0>         0.1424
     45 H12        -6.0375   -6.1361   -0.6176 H         1 <0>         0.1476
     46 H13        -3.2722   -8.5317   -2.8255 H         1 <0>         0.1391
     47 H14        -1.5796   -6.7556   -2.6349 H         1 <0>         0.1420
     48 H15         2.2288   -3.9256   -2.4552 H         1 <0>         0.4097
     49 H16         3.9679   -7.3031    0.2250 H         1 <0>         0.1530
     50 H17         6.1483   -7.9074   -0.8293 H         1 <0>         0.1452
     51 H18         6.8173   -6.6124   -2.9437 H         1 <0>         0.1940
     52 H19         4.4065   -0.2751    0.1795 H         1 <0>         0.4562
@<TRIPOS>BOND
     1    1    9 ar
     2    1    2 ar
     3    1   35 1
     4    2    3 ar
     5    2   36 1
     6    3    4 ar
     7    3   37 1
     8    4    8 ar
     9    4    5 2
    10    5    6 1
    11    5   52 1
    12    6    7 1
    13    6   38 1
    14    6   39 1
    15    7    8 2
    16    7   10 1
    17    8    9 ar
    18    9   40 1
    19   10   11 1
    20   10   41 1
    21   10   42 1
    22   11   12 1
    23   11   13 1
    24   11   27 1
    25   13   14 2
    26   13   15 am
    27   15   16 1
    28   15   43 1
    29   16   21 ar
    30   16   17 ar
    31   17   18 ar
    32   17   44 1
    33   18   19 ar
    34   18   45 1
    35   19   20 ar
    36   19   22 1
    37   20   21 ar
    38   20   46 1
    39   21   47 1
    40   22   23 1
    41   23   24 1
    42   23   25 1
    43   23   26 1
    44   27   28 am
    45   27   48 1
    46   28   29 2
    47   28   30 1
    48   30   34 1
    49   30   31 2
    50   31   32 1
    51   31   49 1
    52   32   33 2
    53   32   50 1
    54   33   34 1
    55   33   51 1
@<TRIPOS>MOLECULE
ZINC09404719
   53    56     0     0     0
SMALL
USER_CHARGES
N-[(3-benzothiazol-2-ylphenyl)thiocarbamoyl]-4-(dimethylsulfamoyl)benzamide
@<TRIPOS>ATOM
      1 C1         10.1737   -4.5478   -1.6338 C.3       1 <0>         0.0899
      2 N1          9.3416   -5.5004   -0.8946 N.pl3     1 <0>        -1.0043
      3 C2          8.9368   -6.7605   -1.5226 C.3       1 <0>         0.0861
      4 S1          8.8588   -5.1528    0.6508 S.o2      1 <0>         2.6912
      5 O1          9.8008   -4.2251    1.1716 O.2       1 <0>        -0.9472
      6 O2          8.5866   -6.3971    1.2808 O.2       1 <0>        -0.9451
      7 C3          7.3216   -4.2992    0.5367 C.ar      1 <0>        -0.6545
      8 C4          6.1357   -5.0121    0.5448 C.ar      1 <0>        -0.0214
      9 C5          4.9287   -4.3501    0.4563 C.ar      1 <0>        -0.0730
     10 C6          4.9055   -2.9576    0.3580 C.ar      1 <0>        -0.0797
     11 C7          6.1059   -2.2449    0.3446 C.ar      1 <0>        -0.1118
     12 C8          7.3057   -2.9190    0.4400 C.ar      1 <0>        -0.0245
     13 C9          3.6163   -2.2418    0.2623 C.2       1 <0>         0.5302
     14 O3          2.5732   -2.8652    0.2691 O.2       1 <0>        -0.3879
     15 N2          3.5974   -0.8975    0.1675 N.am      1 <0>        -0.6382
     16 C10         2.4215   -0.2446    0.0803 C.2       1 <0>         0.5026
     17 S2          0.9520   -1.1228    0.0898 S.2       1 <0>        -0.4592
     18 N3          2.4026    1.0997   -0.0145 N.pl3     1 <0>        -0.6195
     19 C11         1.1822    1.7837   -0.0159 C.ar      1 <0>         0.1105
     20 C12         1.0202    2.9179    0.7713 C.ar      1 <0>        -0.0928
     21 C13        -0.1851    3.5939    0.7772 C.ar      1 <0>        -0.1129
     22 C14        -1.2323    3.1540   -0.0072 C.ar      1 <0>        -0.0746
     23 C15        -1.0796    2.0164   -0.8009 C.ar      1 <0>        -0.0202
     24 C16         0.1347    1.3308   -0.8027 C.ar      1 <0>        -0.0180
     25 C17        -2.2019    1.5397   -1.6380 C.2       1 <0>         0.2069
     26 N4         -2.2458    0.5039   -2.4467 N.2       1 <0>        -0.4890
     27 C18        -3.3476    0.1809   -3.1513 C.ar      1 <0>         0.0791
     28 C19        -3.5276   -0.9011   -4.0462 C.ar      1 <0>        -0.0575
     29 C20        -4.7119   -1.0846   -4.6881 C.ar      1 <0>        -0.1125
     30 C21        -5.7860   -0.2263   -4.4963 C.ar      1 <0>        -0.0915
     31 C22        -5.6524    0.8433   -3.6310 C.ar      1 <0>        -0.0692
     32 C23        -4.4603    1.0378   -2.9769 C.ar      1 <0>        -0.1397
     33 S3         -3.8415    2.2295   -1.8138 S.3       1 <0>        -0.0074
     34 H1         11.2258   -4.7659   -1.4507 H         1 <0>         0.0648
     35 H2          9.9650   -4.6342   -2.7002 H         1 <0>         0.0769
     36 H3          9.9493   -3.5345   -1.3006 H         1 <0>         0.0715
     37 H4          7.8489   -6.8102   -1.5692 H         1 <0>         0.0614
     38 H5          9.3463   -6.8118   -2.5314 H         1 <0>         0.0853
     39 H6          9.3138   -7.5972   -0.9345 H         1 <0>         0.0721
     40 H7          6.1551   -6.0892    0.6209 H         1 <0>         0.1529
     41 H8          4.0038   -4.9077    0.4634 H         1 <0>         0.1534
     42 H9          6.0951   -1.1679    0.2643 H         1 <0>         0.1338
     43 H10         8.2349   -2.3686    0.4347 H         1 <0>         0.1497
     44 H11         4.4300   -0.3999    0.1621 H         1 <0>         0.4103
     45 H12         3.2351    1.5930   -0.0817 H         1 <0>         0.4101
     46 H13         1.8375    3.2693    1.3836 H         1 <0>         0.1333
     47 H14        -0.3067    4.4720    1.3942 H         1 <0>         0.1410
     48 H15        -2.1712    3.6878   -0.0035 H         1 <0>         0.1332
     49 H16         0.2585    0.4496   -1.4147 H         1 <0>         0.1611
     50 H17        -2.7141   -1.5895   -4.2210 H         1 <0>         0.1338
     51 H18        -4.8197   -1.9193   -5.3648 H         1 <0>         0.1353
     52 H19        -6.7167   -0.3925   -5.0183 H         1 <0>         0.1402
     53 H20        -6.4784    1.5202   -3.4703 H         1 <0>         0.1350
@<TRIPOS>BOND
     1    1    2 1
     2    1   34 1
     3    1   35 1
     4    1   36 1
     5    2    3 1
     6    2    4 1
     7    3   37 1
     8    3   38 1
     9    3   39 1
    10    4    5 2
    11    4    6 2
    12    4    7 1
    13    7   12 ar
    14    7    8 ar
    15    8    9 ar
    16    8   40 1
    17    9   10 ar
    18    9   41 1
    19   10   11 ar
    20   10   13 1
    21   11   12 ar
    22   11   42 1
    23   12   43 1
    24   13   14 2
    25   13   15 am
    26   15   16 1
    27   15   44 1
    28   16   17 2
    29   16   18 1
    30   18   19 1
    31   18   45 1
    32   19   24 ar
    33   19   20 ar
    34   20   21 ar
    35   20   46 1
    36   21   22 ar
    37   21   47 1
    38   22   23 ar
    39   22   48 1
    40   23   24 ar
    41   23   25 1
    42   24   49 1
    43   25   33 1
    44   25   26 2
    45   26   27 1
    46   27   32 ar
    47   27   28 ar
    48   28   29 ar
    49   28   50 1
    50   29   30 ar
    51   29   51 1
    52   30   31 ar
    53   30   52 1
    54   31   32 ar
    55   31   53 1
    56   32   33 1
@<TRIPOS>MOLECULE
ZINC14468144
   67    71     0     0     0
SMALL
USER_CHARGES
[4-[(3aS,4S,9bS)-8-(cyclohexylsulfamoyl)-3a,4,5,9b-tetrahydro-3H-cyclopenta[c]quinolin-4-yl]-2-methoxy-phenyl] acetate
@<TRIPOS>ATOM
      1 C1         -3.1973    2.7927    1.2721 C.3       1 <0>        -0.1441
      2 C2         -1.8275    2.1685    1.2014 C.2       1 <0>         0.4577
      3 O1         -1.2915    1.7721    2.2092 O.2       1 <0>        -0.4955
      4 O2         -1.2028    2.0529    0.0189 O.3       1 <0>        -0.2849
      5 C3         -0.0210    1.3800    0.0082 C.ar      1 <0>         0.0568
      6 C4          1.1760    2.0782    0.0269 C.ar      1 <0>        -0.0751
      7 C5          2.3762    1.3928    0.0102 C.ar      1 <0>        -0.1296
      8 C6          2.3862    0.0106   -0.0252 C.ar      1 <0>        -0.0523
      9 C7          1.1960   -0.6921   -0.0441 C.ar      1 <0>        -0.1814
     10 C8         -0.0110   -0.0112   -0.0275 C.ar      1 <0>         0.1323
     11 O3         -1.1826   -0.7009   -0.0455 O.3       1 <0>        -0.3089
     12 C9         -1.0956   -2.1267   -0.0821 C.3       1 <0>         0.0245
     13 C10         3.6977   -0.7315   -0.0428 C.3       1 <0>         0.2053
     14 H1          3.5574   -1.7333   -0.4489 H         1 <0>         0.0878
     15 C11         4.2747   -0.8100    1.3593 C.3       1 <0>        -0.1023
     16 H2          4.4781    0.1822    1.7619 H         1 <0>         0.0985
     17 C12         3.5314   -1.6883    2.3744 C.3       1 <0>        -0.0873
     18 C13         4.6722   -2.1296    3.2934 C.2       1 <0>        -0.1613
     19 C14         5.8232   -2.1043    2.6324 C.2       1 <0>        -0.1519
     20 C15         5.5572   -1.6859    1.2320 C.3       1 <0>        -0.0253
     21 H3          5.2949   -2.5744    0.6578 H         1 <0>         0.0845
     22 C16         6.5491   -0.9242    0.4423 C.ar      1 <0>        -0.1581
     23 C17         7.9029   -0.9933    0.6899 C.ar      1 <0>         0.0332
     24 C18         8.7918   -0.2718   -0.0854 C.ar      1 <0>        -0.7267
     25 C19         8.3229    0.5229   -1.1157 C.ar      1 <0>         0.0268
     26 C20         6.9690    0.6028   -1.3684 C.ar      1 <0>        -0.2120
     27 C21         6.0665   -0.1127   -0.5905 C.ar      1 <0>         0.2753
     28 N1          4.6950    0.0123   -0.8429 N.pl3     1 <0>        -0.7340
     29 S1         10.5211   -0.3643    0.2394 S.o2      1 <0>         2.6955
     30 O4         11.0958    0.8281   -0.2775 O.2       1 <0>        -0.9612
     31 O5         10.6587   -0.7484    1.6006 O.2       1 <0>        -0.9637
     32 N2         11.1236   -1.6119   -0.6676 N.pl3     1 <0>        -1.1148
     33 C22        11.1014   -1.5316   -2.1302 C.3       1 <0>         0.1502
     34 C23         9.8496   -2.2335   -2.6606 C.3       1 <0>        -0.1412
     35 C24         9.8264   -2.1496   -4.1881 C.3       1 <0>        -0.1178
     36 C25        11.0728   -2.8320   -4.7554 C.3       1 <0>        -0.1229
     37 C26        12.3245   -2.1301   -4.2250 C.3       1 <0>        -0.1192
     38 C27        12.3478   -2.2140   -2.6975 C.3       1 <0>        -0.1228
     39 H4         -3.9558    2.0189    1.1533 H         1 <0>         0.1087
     40 H5         -3.3247    3.2810    2.2382 H         1 <0>         0.1059
     41 H6         -3.3023    3.5296    0.4758 H         1 <0>         0.0967
     42 H7          1.1710    3.1578    0.0542 H         1 <0>         0.1409
     43 H8          3.3082    1.9381    0.0245 H         1 <0>         0.1350
     44 H9          1.2067   -1.7717   -0.0721 H         1 <0>         0.1389
     45 H10        -0.5604   -2.4352   -0.9801 H         1 <0>         0.0595
     46 H11        -0.5609   -2.4808    0.7993 H         1 <0>         0.0591
     47 H12        -2.0993   -2.5518   -0.0933 H         1 <0>         0.1054
     48 H13         2.7896   -1.1083    2.9235 H         1 <0>         0.0767
     49 H14         3.0701   -2.5461    1.8849 H         1 <0>         0.0803
     50 H15         4.5581   -2.4188    4.3277 H         1 <0>         0.1323
     51 H16         6.7915   -2.3475    3.0441 H         1 <0>         0.1349
     52 H17         8.2714   -1.6142    1.4931 H         1 <0>         0.1367
     53 H18         9.0183    1.0825   -1.7237 H         1 <0>         0.1375
     54 H19         6.6086    1.2244   -2.1747 H         1 <0>         0.1301
     55 H20         4.3933    0.5973   -1.5554 H         1 <0>         0.4057
     56 H21        11.4913   -2.3959   -0.2305 H         1 <0>         0.4175
     57 H22        11.0887   -0.4856   -2.4365 H         1 <0>         0.0918
     58 H23         9.8623   -3.2795   -2.3543 H         1 <0>         0.0699
     59 H24         8.9617   -1.7473   -2.2565 H         1 <0>         0.0705
     60 H25         9.8137   -1.1036   -4.4944 H         1 <0>         0.0647
     61 H26         8.9346   -2.6497   -4.5660 H         1 <0>         0.0648
     62 H27        11.0562   -2.7723   -5.8436 H         1 <0>         0.0638
     63 H28        11.0854   -3.8780   -4.4491 H         1 <0>         0.0628
     64 H29        12.3119   -1.0841   -4.5313 H         1 <0>         0.0664
     65 H30        13.2125   -2.6163   -4.6291 H         1 <0>         0.0678
     66 H31        13.2395   -1.7140   -2.3197 H         1 <0>         0.0722
     67 H32        12.3604   -3.2600   -2.3912 H         1 <0>         0.0698
@<TRIPOS>BOND
     1    1    2 1
     2    1   39 1
     3    1   40 1
     4    1   41 1
     5    2    3 2
     6    2    4 1
     7    4    5 1
     8    5   10 ar
     9    5    6 ar
    10    6    7 ar
    11    6   42 1
    12    7    8 ar
    13    7   43 1
    14    8    9 ar
    15    8   13 1
    16    9   10 ar
    17    9   44 1
    18   10   11 1
    19   11   12 1
    20   12   45 1
    21   12   46 1
    22   12   47 1
    23   13   14 1
    24   13   28 1
    25   13   15 1
    26   15   16 1
    27   15   20 1
    28   15   17 1
    29   17   18 1
    30   17   48 1
    31   17   49 1
    32   18   19 2
    33   18   50 1
    34   19   20 1
    35   19   51 1
    36   20   21 1
    37   20   22 1
    38   22   27 ar
    39   22   23 ar
    40   23   24 ar
    41   23   52 1
    42   24   25 ar
    43   24   29 1
    44   25   26 ar
    45   25   53 1
    46   26   27 ar
    47   26   54 1
    48   27   28 1
    49   28   55 1
    50   29   30 2
    51   29   31 2
    52   29   32 1
    53   32   33 1
    54   32   56 1
    55   33   38 1
    56   33   34 1
    57   33   57 1
    58   34   35 1
    59   34   58 1
    60   34   59 1
    61   35   36 1
    62   35   60 1
    63   35   61 1
    64   36   37 1
    65   36   62 1
    66   36   63 1
    67   37   38 1
    68   37   64 1
    69   37   65 1
    70   38   66 1
    71   38   67 1
@<TRIPOS>MOLECULE
ZINC21522696
   75    78     0     0     0
SMALL
USER_CHARGES
acetamido-N-cycloheptyl-isopentyl-trimethyl-oxo-BLAHcarboxamide
@<TRIPOS>ATOM
      1 C1          2.0701    3.1782   -2.1024 C.3       1 <0>        -0.1369
      2 C2          1.5166    1.8415   -1.6804 C.2       1 <0>        -0.0365
      3 C3          0.2273    1.5438   -1.8902 C.2       1 <0>        -0.1744
      4 S1          0.0743   -0.1052   -1.2317 S.3       1 <0>         0.0996
      5 C4          1.7494   -0.3458   -0.6928 C.2       1 <0>         0.0533
      6 C5          2.3767    0.8555   -1.0394 C.2       1 <0>        -0.1732
      7 C6          3.7435    0.7137   -0.6262 C.2       1 <0>         0.2403
      8 C7          3.8831   -0.5271   -0.0692 C.2       1 <0>        -0.0943
      9 N1          2.6400   -1.1723   -0.1068 N.pl3     1 <0>        -0.4006
     10 C8          2.4574   -2.5213    0.4428 C.3       1 <0>         0.1057
     11 C9          3.7789   -3.2826    0.3281 C.3       1 <0>         0.1504
     12 N2          4.9152   -2.4810    0.7683 N.am      1 <0>        -0.6082
     13 C10         5.0255   -1.1664    0.4745 C.2       1 <0>         0.5953
     14 O1          6.0625   -0.5572    0.6679 O.2       1 <0>        -0.5088
     15 C11         5.9716   -3.1219    1.5555 C.3       1 <0>         0.1006
     16 C12         7.0435   -3.6761    0.6148 C.3       1 <0>        -0.1280
     17 C13         8.1467   -4.3454    1.4369 C.3       1 <0>        -0.0929
     18 C14         7.5740   -5.5653    2.1614 C.3       1 <0>        -0.1534
     19 C15         9.2778   -4.7890    0.5069 C.3       1 <0>        -0.1476
     20 C16         3.7011   -4.5454    1.1884 C.3       1 <0>        -0.1513
     21 C17         3.9900   -3.6826   -1.1094 C.2       1 <0>         0.5103
     22 O2          3.6509   -4.7836   -1.4885 O.2       1 <0>        -0.5262
     23 N3          4.5555   -2.8169   -1.9738 N.am      1 <0>        -0.7240
     24 C18         4.7607   -3.2058   -3.3712 C.3       1 <0>         0.1538
     25 C19         6.0568   -4.0357   -3.4736 C.3       1 <0>        -0.1159
     26 C20         6.0076   -4.8446   -4.7415 C.3       1 <0>        -0.1145
     27 C21         6.7062   -4.1381   -5.9190 C.3       1 <0>        -0.1193
     28 C22         6.3982   -2.6297   -5.9784 C.3       1 <0>        -0.1237
     29 C23         4.9520   -2.3257   -5.6945 C.3       1 <0>        -0.1137
     30 C24         4.8044   -2.0053   -4.1930 C.3       1 <0>        -0.1317
     31 N4          4.7475    1.6686   -0.7671 N.am      1 <0>        -0.6629
     32 C25         4.5076    2.9527   -0.4354 C.2       1 <0>         0.5095
     33 O3          3.4448    3.2627    0.0599 O.2       1 <0>        -0.5075
     34 C26         5.5600    4.0034   -0.6799 C.3       1 <0>        -0.1751
     35 C27        -0.8362    2.3957   -2.5339 C.3       1 <0>        -0.0639
     36 H1          1.2708    3.7769   -2.5636 H         1 <0>         0.0615
     37 H2          2.8808    3.0261   -2.8302 H         1 <0>         0.0572
     38 H3          2.4626    3.7072   -1.2214 H         1 <0>         0.1188
     39 H4          2.1588   -2.4496    1.4991 H         1 <0>         0.1110
     40 H5          1.6745   -3.0456   -0.1248 H         1 <0>         0.1177
     41 H6          6.4244   -2.3824    2.2323 H         1 <0>         0.0895
     42 H7          5.5413   -3.9441    2.1460 H         1 <0>         0.0933
     43 H8          6.5906   -4.4156   -0.0620 H         1 <0>         0.0626
     44 H9          7.4738   -2.8538    0.0243 H         1 <0>         0.0701
     45 H10         8.5384   -3.6307    2.1757 H         1 <0>         0.0730
     46 H11         8.3672   -6.0465    2.7525 H         1 <0>         0.0572
     47 H12         7.1823   -6.2800    1.4226 H         1 <0>         0.0556
     48 H13         6.7608   -5.2463    2.8299 H         1 <0>         0.0551
     49 H14        10.0710   -5.2702    1.0979 H         1 <0>         0.0563
     50 H15         9.6895   -3.9119   -0.0140 H         1 <0>         0.0545
     51 H16         8.8861   -5.5037   -0.2318 H         1 <0>         0.0537
     52 H17         4.6480   -5.0999    1.1121 H         1 <0>         0.0860
     53 H18         2.8751   -5.1798    0.8345 H         1 <0>         0.0938
     54 H19         3.5242   -4.2643    2.2371 H         1 <0>         0.0804
     55 H20         4.8630   -1.8183   -1.6300 H         1 <0>         0.4119
     56 H21         3.8970   -3.7840   -3.7314 H         1 <0>         0.0834
     57 H22         6.9244   -3.3598   -3.4932 H         1 <0>         0.0671
     58 H23         6.1332   -4.7052   -2.6041 H         1 <0>         0.0663
     59 H24         6.5091   -5.8102   -4.5800 H         1 <0>         0.0626
     60 H25         4.9591   -5.0189   -5.0248 H         1 <0>         0.0632
     61 H26         7.7957   -4.2548   -5.8224 H         1 <0>         0.0596
     62 H27         6.3720   -4.5866   -6.8662 H         1 <0>         0.0611
     63 H28         7.0085   -2.1012   -5.2313 H         1 <0>         0.0607
     64 H29         6.6342   -2.2465   -6.9821 H         1 <0>         0.0610
     65 H30         4.6342   -1.4611   -6.2957 H         1 <0>         0.0681
     66 H31         4.3359   -3.1992   -5.9542 H         1 <0>         0.0684
     67 H32         3.8741   -1.4341   -4.0574 H         1 <0>         0.0661
     68 H33         5.6621   -1.3859   -3.8920 H         1 <0>         0.0642
     69 H34         5.7363    1.3748   -1.1491 H         1 <0>         0.4400
     70 H35         5.1847    4.9825   -0.3475 H         1 <0>         0.0978
     71 H36         5.7934    4.0455   -1.7540 H         1 <0>         0.0922
     72 H37         6.4699    3.7490   -0.1166 H         1 <0>         0.0940
     73 H38        -1.7885    1.8454   -2.5472 H         1 <0>         0.0720
     74 H39        -0.5381    2.6376   -3.5647 H         1 <0>         0.0787
     75 H40        -0.9582    3.3259   -1.9596 H         1 <0>         0.0800
@<TRIPOS>BOND
     1    1    2 1
     2    1   36 1
     3    1   37 1
     4    1   38 1
     5    2    6 1
     6    2    3 2
     7    3    4 1
     8    3   35 1
     9    4    5 1
    10    5    9 1
    11    5    6 2
    12    6    7 1
    13    7    8 2
    14    7   31 1
    15    8   13 1
    16    8    9 1
    17    9   10 1
    18   10   11 1
    19   10   39 1
    20   10   40 1
    21   11   12 1
    22   11   20 1
    23   11   21 1
    24   12   13 am
    25   12   15 1
    26   13   14 2
    27   15   16 1
    28   15   41 1
    29   15   42 1
    30   16   17 1
    31   16   43 1
    32   16   44 1
    33   17   18 1
    34   17   19 1
    35   17   45 1
    36   18   46 1
    37   18   47 1
    38   18   48 1
    39   19   49 1
    40   19   50 1
    41   19   51 1
    42   20   52 1
    43   20   53 1
    44   20   54 1
    45   21   22 2
    46   21   23 am
    47   23   24 1
    48   23   55 1
    49   24   30 1
    50   24   25 1
    51   24   56 1
    52   25   26 1
    53   25   57 1
    54   25   58 1
    55   26   27 1
    56   26   59 1
    57   26   60 1
    58   27   28 1
    59   27   61 1
    60   27   62 1
    61   28   29 1
    62   28   63 1
    63   28   64 1
    64   29   30 1
    65   29   65 1
    66   29   66 1
    67   30   67 1
    68   30   68 1
    69   31   32 am
    70   31   69 1
    71   32   33 2
    72   32   34 1
    73   34   70 1
    74   34   71 1
    75   34   72 1
    76   35   73 1
    77   35   74 1
    78   35   75 1
@<TRIPOS>MOLECULE
ZINC35751029
   62    66     0     0     0
SMALL
USER_CHARGES

@<TRIPOS>ATOM
      1 C1          0.5663    2.6325    0.8540 C.ar      1 <0>        -0.1099
      2 C2          1.8776    3.0606    0.7641 C.ar      1 <0>        -0.1221
      3 C3          2.9089    2.1407    0.7971 C.ar      1 <0>        -0.1026
      4 C4          2.6289    0.7926    0.9205 C.ar      1 <0>        -0.1179
      5 C5          1.3176    0.3646    1.0113 C.ar      1 <0>        -0.0918
      6 C6          0.2863    1.2844    0.9769 C.ar      1 <0>        -0.1195
      7 C7          3.7531   -0.2103    0.9555 C.3       1 <0>         0.1903
      8 N1          4.1760   -0.4216    2.3422 N.am      1 <0>        -0.6016
      9 C8          5.2157    0.3412    3.0610 C.3       1 <0>         0.0836
     10 H1          5.0801    1.4131    2.9166 H         1 <0>         0.1334
     11 C9          4.9521   -0.0539    4.5334 C.3       1 <0>         0.1354
     12 H2          5.8884   -0.1618    5.0810 H         1 <0>         0.1393
     13 O1          4.2909   -1.3261    4.3891 O.3       1 <0>        -0.3086
     14 C10         3.6822   -1.3424    3.1912 C.2       1 <0>         0.6499
     15 O2          2.7840   -2.1086    2.9038 O.2       1 <0>        -0.4999
     16 C11         4.0506    0.9486    5.2065 C.ar      1 <0>        -0.1399
     17 C12         2.6778    0.8290    5.0907 C.ar      1 <0>        -0.0649
     18 C13         1.8488    1.7461    5.7063 C.ar      1 <0>        -0.1128
     19 C14         2.3952    2.7892    6.4428 C.ar      1 <0>         0.1647
     20 C15         3.7744    2.9062    6.5575 C.ar      1 <0>        -0.1439
     21 C16         4.5977    1.9830    5.9434 C.ar      1 <0>        -0.0757
     22 N2          1.5586    3.7198    7.0670 N.am      1 <0>        -0.6716
     23 C17         0.3594    3.3334    7.5456 C.2       1 <0>         0.5604
     24 O3          0.0439    2.1597    7.5190 O.2       1 <0>        -0.5085
     25 C18        -0.5722    4.3367    8.1027 C.ar      1 <0>        -0.1407
     26 C19        -0.2154    5.6859    8.1294 C.ar      1 <0>        -0.0858
     27 C20        -1.0898    6.6172    8.6503 C.ar      1 <0>        -0.1264
     28 C21        -2.3178    6.2164    9.1460 C.ar      1 <0>        -0.0882
     29 C22        -2.6776    4.8806    9.1226 C.ar      1 <0>        -0.1256
     30 C23        -1.8150    3.9398    8.5992 C.ar      1 <0>        -0.0556
     31 C24         6.5932   -0.0865    2.6245 C.2       1 <0>         0.5029
     32 O4          6.7480   -1.1490    2.0604 O.2       1 <0>        -0.4876
     33 N3          7.6532    0.7116    2.8610 N.am      1 <0>        -0.6679
     34 C25         8.9141    0.3663    2.3621 C.ar      1 <0>         0.1409
     35 C26        10.0585    0.6902    3.0789 C.ar      1 <0>        -0.1426
     36 C27        11.3016    0.3480    2.5837 C.ar      1 <0>        -0.1001
     37 C28        11.4073   -0.3164    1.3756 C.ar      1 <0>        -0.1311
     38 C29        10.2697   -0.6400    0.6593 C.ar      1 <0>        -0.0997
     39 C30         9.0233   -0.3061    1.1520 C.ar      1 <0>        -0.1198
     40 H3         -0.2392    3.3516    0.8327 H         1 <0>         0.1217
     41 H4          2.0964    4.1138    0.6677 H         1 <0>         0.1220
     42 H5          3.9334    2.4751    0.7261 H         1 <0>         0.1184
     43 H6          1.0989   -0.6887    1.1074 H         1 <0>         0.1274
     44 H7         -0.7382    0.9499    1.0475 H         1 <0>         0.1237
     45 H8          3.4109   -1.1546    0.5322 H         1 <0>         0.1022
     46 H9          4.5938    0.1657    0.3726 H         1 <0>         0.0932
     47 H10         2.2535    0.0176    4.5179 H         1 <0>         0.1233
     48 H11         0.7767    1.6524    5.6148 H         1 <0>         0.1389
     49 H12         4.2025    3.7164    7.1292 H         1 <0>         0.1334
     50 H13         5.6702    2.0711    6.0357 H         1 <0>         0.1340
     51 H14         1.8414    4.6434    7.1556 H         1 <0>         0.4120
     52 H15         0.7431    6.0000    7.7434 H         1 <0>         0.1253
     53 H16        -0.8150    7.6615    8.6715 H         1 <0>         0.1318
     54 H17        -2.9983    6.9494    9.5534 H         1 <0>         0.1305
     55 H18        -3.6375    4.5743    9.5114 H         1 <0>         0.1333
     56 H19        -2.0989    2.8980    8.5774 H         1 <0>         0.1382
     57 H20         7.5420    1.5254    3.3770 H         1 <0>         0.4126
     58 H21         9.9767    1.2095    4.0223 H         1 <0>         0.1268
     59 H22        12.1921    0.6000    3.1405 H         1 <0>         0.1279
     60 H23        12.3805   -0.5829    0.9906 H         1 <0>         0.1249
     61 H24        10.3555   -1.1587   -0.2841 H         1 <0>         0.1269
     62 H25         8.1349   -0.5637    0.5945 H         1 <0>         0.1329
@<TRIPOS>BOND
     1    1    6 ar
     2    1    2 ar
     3    1   40 1
     4    2    3 ar
     5    2   41 1
     6    3    4 ar
     7    3   42 1
     8    4    5 ar
     9    4    7 1
    10    5    6 ar
    11    5   43 1
    12    6   44 1
    13    7    8 1
    14    7   45 1
    15    7   46 1
    16    8   14 am
    17    8    9 1
    18    9   10 1
    19    9   11 1
    20    9   31 1
    21   11   12 1
    22   11   13 1
    23   11   16 1
    24   13   14 1
    25   14   15 2
    26   16   21 ar
    27   16   17 ar
    28   17   18 ar
    29   17   47 1
    30   18   19 ar
    31   18   48 1
    32   19   20 ar
    33   19   22 1
    34   20   21 ar
    35   20   49 1
    36   21   50 1
    37   22   23 am
    38   22   51 1
    39   23   24 2
    40   23   25 1
    41   25   30 ar
    42   25   26 ar
    43   26   27 ar
    44   26   52 1
    45   27   28 ar
    46   27   53 1
    47   28   29 ar
    48   28   54 1
    49   29   30 ar
    50   29   55 1
    51   30   56 1
    52   31   32 2
    53   31   33 am
    54   33   34 1
    55   33   57 1
    56   34   39 ar
    57   34   35 ar
    58   35   36 ar
    59   35   58 1
    60   36   37 ar
    61   36   59 1
    62   37   38 ar
    63   37   60 1
    64   38   39 ar
    65   38   61 1
    66   39   62 1
@<TRIPOS>MOLECULE
ZINC59882607
   50    53     0     0     0
SMALL
USER_CHARGES

@<TRIPOS>ATOM
      1 C1          0.0709    1.5300   -0.0918 C.ar      1 <0>        -0.0960
      2 C2          1.2741    2.1886   -0.2666 C.ar      1 <0>        -0.1030
      3 C3          2.4592    1.4792   -0.2563 C.ar      1 <0>        -0.0984
      4 C4          2.4415    0.1036   -0.0697 C.ar      1 <0>         0.0940
      5 C5          1.2319   -0.5548    0.1060 C.ar      1 <0>        -0.0948
      6 C6          0.0501    0.1600    0.0942 C.ar      1 <0>        -0.1041
      7 N1          3.6425   -0.6192   -0.0593 N.pl3     1 <0>        -0.4097
      8 C7          4.0763   -1.5279   -0.9998 C.2       1 <0>         0.2329
      9 N2          5.2477   -1.9658   -0.6002 N.2       1 <0>        -0.2570
     10 N3          5.5729   -1.4033    0.5084 N.2       1 <0>        -0.2861
     11 C8          4.6321   -0.5657    0.8840 C.2       1 <0>         0.1543
     12 S1          4.6417    0.4359    2.3336 S.3       1 <0>         0.1021
     13 C9          6.2187    0.0333    3.1347 C.3       1 <0>        -0.1452
     14 C10         6.3554    0.8328    4.4048 C.2       1 <0>         0.5385
     15 O1          5.4757    1.5988    4.7368 O.2       1 <0>        -0.5214
     16 N4          7.4553    0.6966    5.1717 N.am      1 <0>        -0.5162
     17 N5          7.5825    1.4399    6.3524 N.am      1 <0>        -0.5211
     18 C11         8.6824    1.3037    7.1193 C.2       1 <0>         0.5252
     19 O2          9.5621    0.5377    6.7873 O.2       1 <0>        -0.5331
     20 C12         8.8191    2.1032    8.3894 C.3       1 <0>        -0.1294
     21 C13         9.3357    3.5340    8.1640 C.3       1 <0>        -0.1255
     22 C14        10.1822    3.3443    9.4338 C.3       1 <0>        -0.1418
     23 C15        10.1290    1.8341    9.1487 C.3       1 <0>        -0.1159
     24 C16         3.3584   -1.9333   -2.2265 C.ar      1 <0>        -0.0059
     25 C17         2.3231   -1.1416   -2.7267 C.ar      1 <0>        -0.0963
     26 C18         1.6569   -1.5254   -3.8719 C.ar      1 <0>        -0.0865
     27 C19         2.0131   -2.6931   -4.5250 C.ar      1 <0>        -0.0762
     28 C20         3.0386   -3.4828   -4.0336 C.ar      1 <0>        -0.0882
     29 C21         3.7165   -3.1066   -2.8928 C.ar      1 <0>        -0.0667
     30 Br1         1.0945   -3.2119   -6.0944 Br        1 <0>        -0.0396
     31 H1         -0.8542    2.0874   -0.0961 H         1 <0>         0.1363
     32 H2          1.2872    3.2587   -0.4117 H         1 <0>         0.1392
     33 H3          3.3986    1.9940   -0.3936 H         1 <0>         0.1341
     34 H4          1.2150   -1.6249    0.2510 H         1 <0>         0.1314
     35 H5         -0.8912   -0.3517    0.2308 H         1 <0>         0.1385
     36 H6          6.2453   -1.0306    3.3704 H         1 <0>         0.1346
     37 H7          7.0407    0.2770    2.4617 H         1 <0>         0.1346
     38 H8          8.1589    0.0840    4.9061 H         1 <0>         0.4364
     39 H9          6.8789    2.0525    6.6180 H         1 <0>         0.4339
     40 H10         7.9310    2.0524    9.0192 H         1 <0>         0.1211
     41 H11         9.9290    3.6462    7.2565 H         1 <0>         0.0873
     42 H12         8.5642    4.2976    8.2636 H         1 <0>         0.0801
     43 H13        11.1836    3.7679    9.3583 H         1 <0>         0.0763
     44 H14         9.6668    3.6342   10.3495 H         1 <0>         0.0867
     45 H15         9.9979    1.2252   10.0433 H         1 <0>         0.0766
     46 H16        10.9392    1.4814    8.5104 H         1 <0>         0.0971
     47 H17         2.0442   -0.2307   -2.2180 H         1 <0>         0.1357
     48 H18         0.8556   -0.9140   -4.2597 H         1 <0>         0.1403
     49 H19         3.3116   -4.3927   -4.5473 H         1 <0>         0.1436
     50 H20         4.5198   -3.7207   -2.5133 H         1 <0>         0.1472
@<TRIPOS>BOND
     1    1    6 ar
     2    1    2 ar
     3    1   31 1
     4    2    3 ar
     5    2   32 1
     6    3    4 ar
     7    3   33 1
     8    4    5 ar
     9    4    7 1
    10    5    6 ar
    11    5   34 1
    12    6   35 1
    13    7   11 1
    14    7    8 1
    15    8    9 2
    16    8   24 1
    17    9   10 1
    18   10   11 2
    19   11   12 1
    20   12   13 1
    21   13   14 1
    22   13   36 1
    23   13   37 1
    24   14   15 2
    25   14   16 am
    26   16   17 1
    27   16   38 1
    28   17   18 am
    29   17   39 1
    30   18   19 2
    31   18   20 1
    32   20   23 1
    33   20   21 1
    34   20   40 1
    35   21   22 1
    36   21   41 1
    37   21   42 1
    38   22   23 1
    39   22   43 1
    40   22   44 1
    41   23   45 1
    42   23   46 1
    43   24   29 ar
    44   24   25 ar
    45   25   26 ar
    46   25   47 1
    47   26   27 ar
    48   26   48 1
    49   27   28 ar
    50   27   30 1
    51   28   29 ar
    52   28   49 1
    53   29   50 1
@<TRIPOS>MOLECULE
ZINC08835792
   52    55     0     0     0
SMALL
USER_CHARGES
4-bromo-3-methoxy-N-[(2-pyrrolidin-1-ylphenyl)thiocarbamoyl]naphthalene-2-carboxamide
@<TRIPOS>ATOM
      1 C1         -4.1737    6.0843   -0.4307 C.3       1 <0>         0.0473
      2 O1         -3.3607    5.7501    0.6959 O.3       1 <0>        -0.3105
      3 C2         -2.1907    5.1097    0.4433 C.ar      1 <0>         0.1879
      4 C3         -1.0171    5.8611    0.2214 C.ar      1 <0>        -0.1500
      5 C4          0.1858    5.2238   -0.0383 C.ar      1 <0>        -0.0345
      6 C5          0.2313    3.8230   -0.0791 C.ar      1 <0>        -0.0649
      7 C6          1.4353    3.1434   -0.3403 C.ar      1 <0>        -0.0924
      8 C7          1.4475    1.7833   -0.3739 C.ar      1 <0>        -0.1132
      9 C8          0.2828    1.0497   -0.1535 C.ar      1 <0>        -0.0866
     10 C9         -0.9013    1.6723    0.0966 C.ar      1 <0>        -0.1178
     11 C10        -0.9539    3.0761    0.1457 C.ar      1 <0>         0.0024
     12 C11        -2.1617    3.7462    0.4062 C.ar      1 <0>        -0.1144
     13 Br1        -3.7459    2.7580    0.7058 Br        1 <0>        -0.0135
     14 C12        -1.0711    7.3346    0.2655 C.2       1 <0>         0.5322
     15 O2         -2.1242    7.8976    0.4929 O.2       1 <0>        -0.3735
     16 N1          0.0470    8.0566    0.0537 N.am      1 <0>        -0.6416
     17 C13        -0.0023    9.4028    0.0941 C.2       1 <0>         0.5075
     18 S1         -1.4854   10.1958    0.4144 S.2       1 <0>        -0.4821
     19 N2          1.1158   10.1248   -0.1177 N.pl3     1 <0>        -0.6084
     20 C14         1.0529   11.5246   -0.1370 C.ar      1 <0>         0.1018
     21 C15        -0.0263   12.1641   -0.7281 C.ar      1 <0>        -0.0521
     22 C16        -0.0887   13.5450   -0.7418 C.ar      1 <0>        -0.1334
     23 C17         0.9278   14.2928   -0.1765 C.ar      1 <0>        -0.0850
     24 C18         2.0099   13.6639    0.4103 C.ar      1 <0>        -0.1646
     25 C19         2.0782   12.2787    0.4332 C.ar      1 <0>         0.0970
     26 N3          3.1728   11.6398    1.0262 N.pl3     1 <0>        -0.4755
     27 C20         4.0991   12.6276    1.6365 C.3       1 <0>         0.0315
     28 C21         4.9041   11.7783    2.6519 C.3       1 <0>        -0.1244
     29 C22         3.8414   10.8007    3.2042 C.3       1 <0>        -0.1321
     30 C23         2.7373   10.7589    2.1316 C.3       1 <0>         0.0399
     31 H1         -3.6174    6.7429   -1.0977 H         1 <0>         0.0506
     32 H2         -4.4474    5.1739   -0.9641 H         1 <0>         0.0461
     33 H3         -5.0766    6.5909   -0.0898 H         1 <0>         0.1032
     34 H4          1.0821    5.8021   -0.2077 H         1 <0>         0.1382
     35 H5          2.3453    3.6986   -0.5136 H         1 <0>         0.1357
     36 H6          2.3731    1.2643   -0.5747 H         1 <0>         0.1323
     37 H7          0.3197   -0.0292   -0.1861 H         1 <0>         0.1332
     38 H8         -1.7960    1.0901    0.2606 H         1 <0>         0.1401
     39 H9          0.8873    7.6073   -0.1277 H         1 <0>         0.4064
     40 H10         1.9642    9.6755   -0.2568 H         1 <0>         0.4094
     41 H11        -0.8200   11.5832   -1.1742 H         1 <0>         0.1501
     42 H12        -0.9319   14.0413   -1.1990 H         1 <0>         0.1292
     43 H13         0.8764   15.3714   -0.1938 H         1 <0>         0.1265
     44 H14         2.8023   14.2510    0.8506 H         1 <0>         0.1335
     45 H15         4.7601   13.0528    0.8812 H         1 <0>         0.0914
     46 H16         3.5420   13.4127    2.1477 H         1 <0>         0.0644
     47 H17         5.3025   12.4056    3.4493 H         1 <0>         0.0787
     48 H18         5.7050   11.2346    2.1509 H         1 <0>         0.0774
     49 H19         3.4393   11.1720    4.1468 H         1 <0>         0.0729
     50 H20         4.2739    9.8095    3.3408 H         1 <0>         0.0755
     51 H21         1.7993   11.1240    2.5498 H         1 <0>         0.0571
     52 H22         2.6090    9.7401    1.7659 H         1 <0>         0.0713
@<TRIPOS>BOND
     1    1    2 1
     2    1   31 1
     3    1   32 1
     4    1   33 1
     5    2    3 1
     6    3   12 ar
     7    3    4 ar
     8    4    5 ar
     9    4   14 1
    10    5    6 ar
    11    5   34 1
    12    6   11 ar
    13    6    7 ar
    14    7    8 ar
    15    7   35 1
    16    8    9 ar
    17    8   36 1
    18    9   10 ar
    19    9   37 1
    20   10   11 ar
    21   10   38 1
    22   11   12 ar
    23   12   13 1
    24   14   15 2
    25   14   16 am
    26   16   17 1
    27   16   39 1
    28   17   18 2
    29   17   19 1
    30   19   20 1
    31   19   40 1
    32   20   25 ar
    33   20   21 ar
    34   21   22 ar
    35   21   41 1
    36   22   23 ar
    37   22   42 1
    38   23   24 ar
    39   23   43 1
    40   24   25 ar
    41   24   44 1
    42   25   26 1
    43   26   30 1
    44   26   27 1
    45   27   28 1
    46   27   45 1
    47   27   46 1
    48   28   29 1
    49   28   47 1
    50   28   48 1
    51   29   30 1
    52   29   49 1
    53   29   50 1
    54   30   51 1
    55   30   52 1
@<TRIPOS>MOLECULE
ZINC03333466
   51    54     0     0     0
SMALL
USER_CHARGES
N-[5-[[4-(4-bromophenyl)sulfanylphenyl]carbamoyl]-2-methyl-phenyl]furan-2-carboxamide
@<TRIPOS>ATOM
      1 C1          4.7002    3.7341   -0.0273 C.3       1 <0>        -0.1238
      2 C2          3.2311    3.3996   -0.0586 C.ar      1 <0>        -0.0809
      3 C3          2.8258    2.0780   -0.0789 C.ar      1 <0>        -0.1045
      4 C4          1.4824    1.7638   -0.1023 C.ar      1 <0>        -0.0968
      5 C5          0.5273    2.7822   -0.1162 C.ar      1 <0>        -0.1263
      6 C6          0.9361    4.1155   -0.0952 C.ar      1 <0>        -0.0677
      7 C7          2.2884    4.4207   -0.0665 C.ar      1 <0>         0.1380
      8 N1          2.7036    5.7561   -0.0458 N.am      1 <0>        -0.6594
      9 C8          1.9074    6.7173   -0.5544 C.2       1 <0>         0.6053
     10 O1          0.7963    6.4343   -0.9625 O.2       1 <0>        -0.4894
     11 C9          2.3798    8.1039   -0.6160 C.2       1 <0>        -0.0924
     12 C10         1.6791    9.1695   -1.1043 C.2       1 <0>        -0.1039
     13 C11         2.5082   10.2940   -0.9688 C.2       1 <0>        -0.2248
     14 C12         3.6640    9.8710   -0.4108 C.2       1 <0>         0.0047
     15 O2          3.5807    8.5518   -0.1947 O.3       1 <0>        -0.1666
     16 C13        -0.9125    2.4484   -0.1470 C.2       1 <0>         0.5627
     17 O3         -1.7423    3.3367   -0.1591 O.2       1 <0>        -0.5000
     18 N2         -1.3050    1.1592   -0.1672 N.am      1 <0>        -0.6700
     19 C14        -2.6655    0.8400   -0.0752 C.ar      1 <0>         0.1869
     20 C15        -3.5416    1.7106    0.5601 C.ar      1 <0>        -0.1393
     21 C16        -4.8833    1.3985    0.6467 C.ar      1 <0>        -0.0395
     22 C17        -5.3559    0.2085    0.1070 C.ar      1 <0>        -0.1689
     23 C18        -4.4783   -0.6648   -0.5239 C.ar      1 <0>        -0.0389
     24 C19        -3.1375   -0.3499   -0.6144 C.ar      1 <0>        -0.1602
     25 S1         -7.0677   -0.1929    0.2222 S.3       1 <0>         0.0065
     26 C20        -7.2226   -0.9490    1.8062 C.ar      1 <0>        -0.0840
     27 C21        -6.0907   -1.1946    2.5742 C.ar      1 <0>        -0.1197
     28 C22        -6.2160   -1.7820    3.8175 C.ar      1 <0>        -0.0716
     29 C23        -7.4658   -2.1370    4.2939 C.ar      1 <0>        -0.0979
     30 C24        -8.5943   -1.8990    3.5291 C.ar      1 <0>        -0.0719
     31 C25        -8.4763   -1.3062    2.2876 C.ar      1 <0>        -0.0955
     32 Br1        -7.6320   -2.9484    5.9938 Br        1 <0>        -0.0487
     33 H1          5.0348    3.8046    1.0076 H         1 <0>         0.0796
     34 H2          5.2618    2.9521   -0.5383 H         1 <0>         0.0794
     35 H3          4.8664    4.6876   -0.5287 H         1 <0>         0.0675
     36 H4          3.5630    1.2889   -0.0720 H         1 <0>         0.1379
     37 H5          1.1698    0.7301   -0.1140 H         1 <0>         0.1282
     38 H6          0.2019    4.9075   -0.1010 H         1 <0>         0.1704
     39 H7          3.5646    5.9904    0.3345 H         1 <0>         0.4187
     40 H8          0.6806    9.1506   -1.5155 H         1 <0>         0.1641
     41 H9          2.2678   11.3067   -1.2567 H         1 <0>         0.1612
     42 H10         4.5132   10.4947   -0.1740 H         1 <0>         0.2147
     43 H11        -0.6452    0.4525   -0.2455 H         1 <0>         0.4135
     44 H12        -3.1736    2.6338    0.9828 H         1 <0>         0.1509
     45 H13        -5.5652    2.0777    1.1368 H         1 <0>         0.1367
     46 H14        -4.8453   -1.5897   -0.9438 H         1 <0>         0.1386
     47 H15        -2.4553   -1.0286   -1.1047 H         1 <0>         0.1348
     48 H16        -5.1146   -0.9218    2.2011 H         1 <0>         0.1314
     49 H17        -5.3372   -1.9687    4.4169 H         1 <0>         0.1343
     50 H18        -9.5683   -2.1769    3.9038 H         1 <0>         0.1385
     51 H19        -9.3574   -1.1201    1.6915 H         1 <0>         0.1379
@<TRIPOS>BOND
     1    1    2 1
     2    1   33 1
     3    1   34 1
     4    1   35 1
     5    2    7 ar
     6    2    3 ar
     7    3    4 ar
     8    3   36 1
     9    4    5 ar
    10    4   37 1
    11    5    6 ar
    12    5   16 1
    13    6    7 ar
    14    6   38 1
    15    7    8 1
    16    8    9 am
    17    8   39 1
    18    9   10 2
    19    9   11 1
    20   11   15 1
    21   11   12 2
    22   12   13 1
    23   12   40 1
    24   13   14 2
    25   13   41 1
    26   14   15 1
    27   14   42 1
    28   16   17 2
    29   16   18 am
    30   18   19 1
    31   18   43 1
    32   19   24 ar
    33   19   20 ar
    34   20   21 ar
    35   20   44 1
    36   21   22 ar
    37   21   45 1
    38   22   23 ar
    39   22   25 1
    40   23   24 ar
    41   23   46 1
    42   24   47 1
    43   25   26 1
    44   26   31 ar
    45   26   27 ar
    46   27   28 ar
    47   27   48 1
    48   28   29 ar
    49   28   49 1
    50   29   30 ar
    51   29   32 1
    52   30   31 ar
    53   30   50 1
    54   31   51 1
@<TRIPOS>MOLECULE
ZINC28308631
   58    60     0     0     0
SMALL
USER_CHARGES
4-bromo-N-[(E)-2-(4-diethylaminophenyl)-1-(phenylcarbamoyl)vinyl]benzamide
@<TRIPOS>ATOM
      1 C1          6.0012    0.6577    0.0027 C.3       1 <0>        -0.1736
      2 C2          5.1448   -0.4781   -0.5606 C.3       1 <0>         0.1144
      3 N1          4.1133   -0.8416    0.4141 N.pl3     1 <0>        -0.6224
      4 C3          4.3853   -1.8734    1.4180 C.3       1 <0>         0.1151
      5 C4          3.9826   -3.2419    0.8647 C.3       1 <0>        -0.1742
      6 C5          2.8743   -0.2063    0.3865 C.ar      1 <0>         0.2307
      7 C6          1.8957   -0.5533    1.3136 C.ar      1 <0>        -0.2037
      8 C7          0.6698    0.0715    1.2898 C.ar      1 <0>        -0.0495
      9 C8          0.4077    1.0579    0.3312 C.ar      1 <0>        -0.1302
     10 C9          1.3952    1.4041   -0.5991 C.ar      1 <0>        -0.0626
     11 C10         2.6179    0.7734   -0.5684 C.ar      1 <0>        -0.1947
     12 C11        -0.9016    1.7235    0.2980 C.2       1 <0>        -0.1109
     13 C12        -0.9818    3.0469    0.0199 C.2       1 <0>         0.0702
     14 C13         0.2427    3.8469   -0.1009 C.2       1 <0>         0.5970
     15 O1          0.7101    4.0819   -1.1998 O.2       1 <0>        -0.5098
     16 N2          0.8495    4.3214    1.0050 N.am      1 <0>        -0.6700
     17 C14         1.9428    5.1847    0.8867 C.ar      1 <0>         0.1618
     18 C15         2.0266    6.0582   -0.1901 C.ar      1 <0>        -0.1165
     19 C16         3.1051    6.9137   -0.3009 C.ar      1 <0>        -0.1040
     20 C17         4.1063    6.8937    0.6527 C.ar      1 <0>        -0.1399
     21 C18         4.0291    6.0210    1.7226 C.ar      1 <0>        -0.1036
     22 C19         2.9505    5.1668    1.8425 C.ar      1 <0>        -0.1494
     23 N3         -2.2323    3.6511   -0.1521 N.am      1 <0>        -0.6628
     24 C20        -2.3158    4.9807   -0.3562 C.2       1 <0>         0.5533
     25 O2         -1.3030    5.6406   -0.4865 O.2       1 <0>        -0.4953
     26 C21        -3.6384    5.6365   -0.4217 C.ar      1 <0>        -0.1186
     27 C22        -4.8035    4.8805   -0.2782 C.ar      1 <0>        -0.0795
     28 C23        -6.0347    5.4993   -0.3341 C.ar      1 <0>        -0.0966
     29 C24        -6.1172    6.8655   -0.5443 C.ar      1 <0>        -0.0653
     30 C25        -4.9655    7.6199   -0.6931 C.ar      1 <0>        -0.0958
     31 C26        -3.7283    7.0137   -0.6330 C.ar      1 <0>        -0.0493
     32 Br1        -7.8098    7.7047   -0.6281 Br        1 <0>        -0.0359
     33 H1          6.7757    0.9306   -0.7292 H         1 <0>         0.0654
     34 H2          6.4794    0.3278    0.9368 H         1 <0>         0.0560
     35 H3          5.3642    1.5313    0.2055 H         1 <0>         0.0599
     36 H4          4.6666   -0.1482   -1.4947 H         1 <0>         0.0770
     37 H5          5.7817   -1.3517   -0.7634 H         1 <0>         0.0746
     38 H6          5.4586   -1.8766    1.6590 H         1 <0>         0.0743
     39 H7          3.8058   -1.6610    2.3285 H         1 <0>         0.0768
     40 H8          4.1868   -4.0166    1.6184 H         1 <0>         0.0652
     41 H9          4.5622   -3.4543   -0.0458 H         1 <0>         0.0565
     42 H10         2.9093   -3.2386    0.6237 H         1 <0>         0.0595
     43 H11         2.0988   -1.3143    2.0526 H         1 <0>         0.1230
     44 H12        -0.0891   -0.1989    2.0090 H         1 <0>         0.1226
     45 H13         1.1972    2.1644   -1.3402 H         1 <0>         0.1387
     46 H14         3.3801    1.0395   -1.2859 H         1 <0>         0.1212
     47 H15        -1.8168    1.1473    0.4990 H         1 <0>         0.1366
     48 H16         0.4846    4.0294    2.0008 H         1 <0>         0.4298
     49 H17         1.2471    6.0712   -0.9375 H         1 <0>         0.1412
     50 H18         3.1688    7.5960   -1.1357 H         1 <0>         0.1221
     51 H19         4.9507    7.5609    0.5614 H         1 <0>         0.1200
     52 H20         4.8129    6.0076    2.4654 H         1 <0>         0.1224
     53 H21         2.8908    4.4855    2.6783 H         1 <0>         0.1212
     54 H22        -3.1470    3.0409   -0.1207 H         1 <0>         0.4378
     55 H23        -4.7405    3.8141   -0.1194 H         1 <0>         0.1361
     56 H24        -6.9365    4.9165   -0.2181 H         1 <0>         0.1429
     57 H25        -5.0363    8.6851   -0.8561 H         1 <0>         0.1435
     58 H26        -2.8307    7.6031   -0.7488 H         1 <0>         0.1474
@<TRIPOS>BOND
     1    1    2 1
     2    1   33 1
     3    1   34 1
     4    1   35 1
     5    2    3 1
     6    2   36 1
     7    2   37 1
     8    3    4 1
     9    3    6 1
    10    4    5 1
    11    4   38 1
    12    4   39 1
    13    5   40 1
    14    5   41 1
    15    5   42 1
    16    6   11 ar
    17    6    7 ar
    18    7    8 ar
    19    7   43 1
    20    8    9 ar
    21    8   44 1
    22    9   10 ar
    23    9   12 1
    24   10   11 ar
    25   10   45 1
    26   11   46 1
    27   12   13 2
    28   12   47 1
    29   13   14 1
    30   13   23 1
    31   14   15 2
    32   14   16 am
    33   16   17 1
    34   16   48 1
    35   17   22 ar
    36   17   18 ar
    37   18   19 ar
    38   18   49 1
    39   19   20 ar
    40   19   50 1
    41   20   21 ar
    42   20   51 1
    43   21   22 ar
    44   21   52 1
    45   22   53 1
    46   23   24 am
    47   23   54 1
    48   24   25 2
    49   24   26 1
    50   26   31 ar
    51   26   27 ar
    52   27   28 ar
    53   27   55 1
    54   28   29 ar
    55   28   56 1
    56   29   30 ar
    57   29   32 1
    58   30   31 ar
    59   30   57 1
    60   31   58 1
@<TRIPOS>MOLECULE
ZINC38565700
   57    60     0     0     0
SMALL
USER_CHARGES

@<TRIPOS>ATOM
      1 C1         -0.0167    1.3781    0.0096 C.ar      1 <0>        -0.1156
      2 C2          1.1709    2.0855    0.0021 C.ar      1 <0>        -0.1145
      3 C3          2.3773    1.4107   -0.0130 C.ar      1 <0>        -0.1026
      4 C4          2.3960    0.0285   -0.0201 C.ar      1 <0>        -0.0897
      5 C5          1.2084   -0.6789   -0.0117 C.ar      1 <0>        -0.1104
      6 C6          0.0021   -0.0041    0.0020 C.ar      1 <0>        -0.1148
      7 C7          3.7112   -0.7071   -0.0376 C.3       1 <0>         0.2470
      8 C8          4.0438   -1.1746    1.3559 C.ar      1 <0>        -0.0897
      9 C9          3.4555   -2.3197    1.8597 C.ar      1 <0>        -0.1025
     10 C10         3.7605   -2.7485    3.1379 C.ar      1 <0>        -0.1215
     11 C11         4.6543   -2.0326    3.9122 C.ar      1 <0>        -0.1184
     12 C12         5.2433   -0.8881    3.4082 C.ar      1 <0>        -0.1181
     13 C13         4.9415   -0.4616    2.1284 C.ar      1 <0>        -0.0998
     14 N1          3.6115   -1.8645   -0.9302 N.am      1 <0>        -0.7348
     15 C14         4.7211   -2.3705   -1.5040 C.2       1 <0>         0.7140
     16 O1          5.8048   -1.8664   -1.2808 O.2       1 <0>        -0.5750
     17 N2          4.6294   -3.4353   -2.3252 N.am      1 <0>        -0.7645
     18 C15         5.8355   -3.9853   -2.9489 C.3       1 <0>         0.1542
     19 C16         5.4564   -5.1800   -3.8263 C.3       1 <0>        -0.4876
     20 H1          4.9832   -5.9462   -3.2122 H         1 <0>         0.1642
     21 C17         6.6971   -5.7458   -4.4679 C.2       1 <0>        -0.1812
     22 C18         7.2185   -6.9927   -4.3650 C.2       1 <0>        -0.1089
     23 C19         8.3801   -7.2923   -5.0516 C.2       1 <0>        -0.1674
     24 C20         8.9635   -6.3304   -5.8077 C.2       1 <0>        -0.1585
     25 S1          7.8572   -4.9500   -5.5670 S.3       1 <0>         0.0985
     26 S2          4.3009   -4.6402   -5.1164 S.o2      1 <0>         2.4918
     27 O2          3.0575   -4.2705   -4.5363 O.2       1 <0>        -0.9258
     28 O3          4.9588   -3.7753   -6.0320 O.2       1 <0>        -0.9079
     29 C21         3.9485   -6.0949   -6.0460 C.ar      1 <0>        -0.6721
     30 C22         4.7359   -6.4280   -7.1324 C.ar      1 <0>         0.0154
     31 C23         4.4607   -7.5690   -7.8620 C.ar      1 <0>        -0.1722
     32 C24         3.3958   -8.3786   -7.5046 C.ar      1 <0>         0.1607
     33 C25         2.6079   -8.0440   -6.4164 C.ar      1 <0>        -0.1739
     34 C26         2.8882   -6.9053   -5.6851 C.ar      1 <0>         0.0064
     35 F1          3.1256   -9.4940   -8.2174 F         1 <0>        -0.1265
     36 H2         -0.9591    1.9053    0.0259 H         1 <0>         0.1238
     37 H3          1.1563    3.1654    0.0076 H         1 <0>         0.1257
     38 H4          3.3051    1.9634   -0.0196 H         1 <0>         0.1256
     39 H5          1.2231   -1.7588   -0.0179 H         1 <0>         0.1191
     40 H6         -0.9258   -0.5567    0.0082 H         1 <0>         0.1247
     41 H7          4.4960   -0.0399   -0.3940 H         1 <0>         0.1078
     42 H8          2.7572   -2.8790    1.2547 H         1 <0>         0.1156
     43 H9          3.3004   -3.6427    3.5317 H         1 <0>         0.1207
     44 H10         4.8921   -2.3673    4.9112 H         1 <0>         0.1211
     45 H11         5.9413   -0.3286    4.0133 H         1 <0>         0.1231
     46 H12         5.4045    0.4305    1.7332 H         1 <0>         0.1228
     47 H13         2.7469   -2.2666   -1.1082 H         1 <0>         0.3993
     48 H14         3.7648   -3.8374   -2.5032 H         1 <0>         0.4055
     49 H15         6.3086   -3.2191   -3.5630 H         1 <0>         0.0911
     50 H16         6.5298   -4.3096   -2.1737 H         1 <0>         0.1039
     51 H17         6.7337   -7.7409   -3.7553 H         1 <0>         0.1379
     52 H18         8.8165   -8.2781   -4.9865 H         1 <0>         0.1400
     53 H19         9.8622   -6.3858   -6.4041 H         1 <0>         0.1922
     54 H20         5.5662   -5.7962   -7.4112 H         1 <0>         0.1512
     55 H21         5.0757   -7.8288   -8.7109 H         1 <0>         0.1488
     56 H22         1.7768   -8.6746   -6.1369 H         1 <0>         0.1492
     57 H23         2.2765   -6.6465   -4.8335 H         1 <0>         0.1527
@<TRIPOS>BOND
     1    1    6 ar
     2    1    2 ar
     3    1   36 1
     4    2    3 ar
     5    2   37 1
     6    3    4 ar
     7    3   38 1
     8    4    5 ar
     9    4    7 1
    10    5    6 ar
    11    5   39 1
    12    6   40 1
    13    7    8 1
    14    7   14 1
    15    7   41 1
    16    8   13 ar
    17    8    9 ar
    18    9   10 ar
    19    9   42 1
    20   10   11 ar
    21   10   43 1
    22   11   12 ar
    23   11   44 1
    24   12   13 ar
    25   12   45 1
    26   13   46 1
    27   14   15 am
    28   14   47 1
    29   15   16 2
    30   15   17 am
    31   17   18 1
    32   17   48 1
    33   18   19 1
    34   18   49 1
    35   18   50 1
    36   19   20 1
    37   19   21 1
    38   19   26 1
    39   21   25 1
    40   21   22 2
    41   22   23 1
    42   22   51 1
    43   23   24 2
    44   23   52 1
    45   24   25 1
    46   24   53 1
    47   26   27 2
    48   26   28 2
    49   26   29 1
    50   29   34 ar
    51   29   30 ar
    52   30   31 ar
    53   30   54 1
    54   31   32 ar
    55   31   55 1
    56   32   33 ar
    57   32   35 1
    58   33   34 ar
    59   33   56 1
    60   34   57 1
@<TRIPOS>MOLECULE
ZINC59438420
   49    52     0     0     0
SMALL
USER_CHARGES

@<TRIPOS>ATOM
      1 C1         -0.5608    1.4244    0.0332 C.3       1 <0>        -0.1337
      2 C2         -0.2450   -0.0490    0.0173 C.ar      1 <0>        -0.0237
      3 C3         -0.2280   -0.7478   -1.1894 C.ar      1 <0>        -0.0334
      4 C4          0.0658   -2.1120   -1.1964 C.ar      1 <0>        -0.0656
      5 C5          0.3383   -2.7654   -0.0115 C.ar      1 <0>        -0.1195
      6 C6          0.3215   -2.0731    1.1845 C.ar      1 <0>        -0.0341
      7 C7          0.0352   -0.7130    1.2014 C.ar      1 <0>         0.1076
      8 N1          0.0251   -0.0152    2.4139 N.pl3     1 <0>        -0.6173
      9 C8         -0.6314   -0.5208    3.4769 C.2       1 <0>         0.5108
     10 S1         -1.3595   -2.0671    3.3771 S.2       1 <0>        -0.4763
     11 N2         -0.7147    0.1909    4.6184 N.am      1 <0>        -0.6396
     12 C9         -1.3711   -0.3147    5.6814 C.2       1 <0>         0.5411
     13 O1         -1.8881   -1.4126    5.6105 O.2       1 <0>        -0.3977
     14 C10        -1.4623    0.4642    6.9308 C.ar      1 <0>        -0.1735
     15 C11        -0.8734    1.7294    7.0125 C.ar      1 <0>        -0.0322
     16 C12        -0.9605    2.4535    8.1803 C.ar      1 <0>        -0.2088
     17 C13        -1.6324    1.9282    9.2778 C.ar      1 <0>         0.1892
     18 C14        -2.2195    0.6699    9.2014 C.ar      1 <0>        -0.1360
     19 C15        -2.1425   -0.0583    8.0342 C.ar      1 <0>         0.0166
     20 Br1        -3.1317   -0.0391   10.6984 Br        1 <0>        -0.0167
     21 O2         -1.7155    2.6452   10.4272 O.3       1 <0>        -0.2948
     22 C16        -1.0899    3.9299   10.4371 C.3       1 <0>         0.0205
     23 C17        -0.5208   -0.0454   -2.4576 C.2       1 <0>         0.2110
     24 N3         -0.8104    1.2226   -2.6505 N.2       1 <0>        -0.4984
     25 C18        -1.0568    1.7318   -3.8730 C.ar      1 <0>         0.0766
     26 C19        -1.3782    3.0671   -4.2160 C.ar      1 <0>        -0.0613
     27 C20        -1.6001    3.4198   -5.5100 C.ar      1 <0>        -0.1110
     28 C21        -1.5224    2.4944   -6.5418 C.ar      1 <0>        -0.0927
     29 C22        -1.2113    1.1795   -6.2504 C.ar      1 <0>        -0.0672
     30 C23        -0.9847    0.8123   -4.9464 C.ar      1 <0>        -0.1423
     31 S2         -0.5634   -0.7024   -4.1193 S.3       1 <0>         0.0021
     32 H1          0.3613    1.9949   -0.0784 H         1 <0>         0.0761
     33 H2         -1.2358    1.6603   -0.7895 H         1 <0>         0.1111
     34 H3         -1.0363    1.6839    0.9791 H         1 <0>         0.0562
     35 H4          0.0795   -2.6566   -2.1289 H         1 <0>         0.1326
     36 H5          0.5651   -3.8213   -0.0189 H         1 <0>         0.1415
     37 H6          0.5355   -2.5896    2.1085 H         1 <0>         0.1504
     38 H7          0.4905    0.8324    2.4896 H         1 <0>         0.4084
     39 H8         -0.3021    1.0669    4.6749 H         1 <0>         0.4085
     40 H9         -0.3504    2.1382    6.1606 H         1 <0>         0.1322
     41 H10        -0.5056    3.4310    8.2438 H         1 <0>         0.1472
     42 H11        -2.6029   -1.0333    7.9737 H         1 <0>         0.1583
     43 H12        -1.2307    4.3951   11.4127 H         1 <0>         0.1097
     44 H13        -0.0241    3.8166   10.2390 H         1 <0>         0.0626
     45 H14        -1.5378    4.5581    9.6670 H         1 <0>         0.0625
     46 H15        -1.4482    3.8149   -3.4399 H         1 <0>         0.1326
     47 H16        -1.8435    4.4464   -5.7412 H         1 <0>         0.1350
     48 H17        -1.7037    2.7987   -7.5621 H         1 <0>         0.1403
     49 H18        -1.1465    0.4470   -7.0415 H         1 <0>         0.1353
@<TRIPOS>BOND
     1    1    2 1
     2    1   32 1
     3    1   33 1
     4    1   34 1
     5    2    7 ar
     6    2    3 ar
     7    3    4 ar
     8    3   23 1
     9    4    5 ar
    10    4   35 1
    11    5    6 ar
    12    5   36 1
    13    6    7 ar
    14    6   37 1
    15    7    8 1
    16    8    9 1
    17    8   38 1
    18    9   10 2
    19    9   11 1
    20   11   12 am
    21   11   39 1
    22   12   13 2
    23   12   14 1
    24   14   19 ar
    25   14   15 ar
    26   15   16 ar
    27   15   40 1
    28   16   17 ar
    29   16   41 1
    30   17   18 ar
    31   17   21 1
    32   18   19 ar
    33   18   20 1
    34   19   42 1
    35   21   22 1
    36   22   43 1
    37   22   44 1
    38   22   45 1
    39   23   31 1
    40   23   24 2
    41   24   25 1
    42   25   30 ar
    43   25   26 ar
    44   26   27 ar
    45   26   46 1
    46   27   28 ar
    47   27   47 1
    48   28   29 ar
    49   28   48 1
    50   29   30 ar
    51   29   49 1
    52   30   31 1
@<TRIPOS>MOLECULE
ZINC09434016
   72    77     0     0     0
SMALL
USER_CHARGES
2-(cyclohexylBLAHyl)-N-[1-(4-fluorophenyl)ethylideneamino]acetamide
@<TRIPOS>ATOM
      1 C1          3.6235    7.7417    1.5286 C.3       1 <0>        -0.1675
      2 C2          2.9638    8.8664    2.2841 C.2       1 <0>         0.1827
      3 N1          1.7035    9.1176    2.1039 N.2       1 <0>        -0.2499
      4 N2          0.9561    8.3432    1.2069 N.am      1 <0>        -0.5645
      5 C3         -0.3528    8.6041    1.0197 C.2       1 <0>         0.5191
      6 O1         -0.8839    9.5095    1.6278 O.2       1 <0>        -0.4940
      7 C4         -1.1567    7.7711    0.0548 C.3       1 <0>        -0.0262
      8 C5         -3.1359    7.7985    1.4509 C.3       1 <0>        -0.0147
      9 C6         -4.4678    8.5173    1.6981 C.3       1 <0>         0.0994
     10 N3         -5.3198    8.3245    0.5145 N.pl3     1 <0>        -0.4783
     11 C7         -6.6579    8.5232    0.3529 C.ar      1 <0>         0.1218
     12 C8         -7.6520    8.9346    1.2379 C.ar      1 <0>        -0.1341
     13 C9         -8.9379    9.0430    0.7399 C.ar      1 <0>        -0.0699
     14 C10        -9.2433    8.7599   -0.5813 C.ar      1 <0>        -0.0918
     15 C11        -8.2889    8.3525   -1.4785 C.ar      1 <0>        -0.0541
     16 C12        -6.9778    8.2292   -1.0066 C.ar      1 <0>        -0.0992
     17 C13        -5.7442    7.8311   -1.6285 C.2       1 <0>        -0.0846
     18 C14        -4.7966    7.8927   -0.6719 C.2       1 <0>        -0.0393
     19 C15        -3.3543    7.5339   -0.9498 C.3       1 <0>         0.1314
     20 H1         -3.2136    6.4530   -0.9551 H         1 <0>         0.1603
     21 C16        -2.9695    8.1277   -2.2948 C.3       1 <0>        -0.1327
     22 C17        -4.0198    8.0663   -3.3766 C.3       1 <0>        -0.1128
     23 C18        -5.3469    7.4136   -3.0170 C.3       1 <0>        -0.0573
     24 C19       -10.6690    8.9045   -1.0478 C.3       1 <0>        -0.0486
     25 C20       -11.1262   10.3510   -0.8493 C.3       1 <0>        -0.1105
     26 C21       -12.5736   10.4979   -1.3230 C.3       1 <0>        -0.1215
     27 C22       -13.4730    9.5629   -0.5120 C.3       1 <0>        -0.1224
     28 C23       -13.0157    8.1163   -0.7105 C.3       1 <0>        -0.1215
     29 C24       -11.5683    7.9695   -0.2369 C.3       1 <0>        -0.1105
     30 C25         3.7504    9.6816    3.2282 C.ar      1 <0>        -0.0837
     31 C26         3.1415   10.7249    3.9300 C.ar      1 <0>        -0.0418
     32 C27         3.8821   11.4836    4.8114 C.ar      1 <0>        -0.1598
     33 C28         5.2281   11.2129    5.0019 C.ar      1 <0>         0.1318
     34 C29         5.8377   10.1791    4.3084 C.ar      1 <0>        -0.1570
     35 C30         5.1075    9.4138    3.4240 C.ar      1 <0>        -0.0536
     36 F1          5.9489   11.9600    5.8665 F         1 <0>        -0.1286
     37 H2          3.5444    6.8206    2.1060 H         1 <0>         0.0986
     38 H3          3.1285    7.6109    0.5663 H         1 <0>         0.0721
     39 H4          4.6748    7.9801    1.3670 H         1 <0>         0.1008
     40 H5          1.3808    7.6192    0.7206 H         1 <0>         0.3933
     41 H6         -0.7952    7.9398   -0.9595 H         1 <0>         0.1675
     42 H7         -1.0489    6.7164    0.3082 H         1 <0>         0.1667
     43 H8         -3.2991    6.7215    1.4897 H         1 <0>         0.1402
     44 H9         -2.4290    8.0806    2.2311 H         1 <0>         0.1539
     45 H10        -4.9564    8.0946    2.5759 H         1 <0>         0.1290
     46 H11        -4.2884    9.5812    1.8528 H         1 <0>         0.1080
     47 H12        -7.4279    9.1600    2.2700 H         1 <0>         0.1305
     48 H13        -9.7298    9.3590    1.4028 H         1 <0>         0.1288
     49 H14        -8.5394    8.1352   -2.5063 H         1 <0>         0.1348
     50 H15        -2.0820    7.6068   -2.6540 H         1 <0>         0.0957
     51 H16        -2.7056    9.1735   -2.1374 H         1 <0>         0.0822
     52 H17        -3.5980    7.5248   -4.2234 H         1 <0>         0.0856
     53 H18        -4.2247    9.0860   -3.7027 H         1 <0>         0.0784
     54 H19        -5.2414    6.3294   -3.0550 H         1 <0>         0.0851
     55 H20        -6.1126    7.7299   -3.7254 H         1 <0>         0.0911
     56 H21       -10.7336    8.6448   -2.1045 H         1 <0>         0.0794
     57 H22       -11.0616   10.6108    0.2073 H         1 <0>         0.0633
     58 H23       -10.4855   11.0172   -1.4271 H         1 <0>         0.0623
     59 H24       -12.6383   10.2382   -2.3796 H         1 <0>         0.0630
     60 H25       -12.8994   11.5284   -1.1815 H         1 <0>         0.0641
     61 H26       -14.5042    9.6675   -0.8494 H         1 <0>         0.0635
     62 H27       -13.4084    9.8226    0.5446 H         1 <0>         0.0616
     63 H28       -13.0804    7.8566   -1.7671 H         1 <0>         0.0630
     64 H29       -13.6565    7.4502   -0.1327 H         1 <0>         0.0642
     65 H30       -11.2425    6.9390   -0.3783 H         1 <0>         0.0625
     66 H31       -11.5037    8.2292    0.8198 H         1 <0>         0.0633
     67 H32         2.0918   10.9339    3.7858 H         1 <0>         0.1443
     68 H33         3.4127   12.2906    5.3543 H         1 <0>         0.1449
     69 H34         6.8868    9.9728    4.4609 H         1 <0>         0.1472
     70 H35         5.5836    8.6090    2.8837 H         1 <0>         0.1434
     71 N4         -2.5757    8.1797    0.1377 N.4       1 <0>        -0.3866
     72 H36        -2.6361    9.1992    0.0319 H         1 <0>         0.4377
@<TRIPOS>BOND
     1    1    2 1
     2    1   37 1
     3    1   38 1
     4    1   39 1
     5    2    3 2
     6    2   30 1
     7    3    4 1
     8    4    5 am
     9    4   40 1
    10    5    6 2
    11    5    7 1
    12    7   41 1
    13    7   42 1
    14    7   71 1
    15    8    9 1
    16    8   43 1
    17    8   44 1
    18    8   71 1
    19    9   10 1
    20    9   45 1
    21    9   46 1
    22   10   18 1
    23   10   11 1
    24   11   16 ar
    25   11   12 ar
    26   12   13 ar
    27   12   47 1
    28   13   14 ar
    29   13   48 1
    30   14   15 ar
    31   14   24 1
    32   15   16 ar
    33   15   49 1
    34   16   17 1
    35   17   23 1
    36   17   18 2
    37   18   19 1
    38   19   20 1
    39   19   21 1
    40   19   71 1
    41   21   22 1
    42   21   50 1
    43   21   51 1
    44   22   23 1
    45   22   52 1
    46   22   53 1
    47   23   54 1
    48   23   55 1
    49   24   29 1
    50   24   25 1
    51   24   56 1
    52   25   26 1
    53   25   57 1
    54   25   58 1
    55   26   27 1
    56   26   59 1
    57   26   60 1
    58   27   28 1
    59   27   61 1
    60   27   62 1
    61   28   29 1
    62   28   63 1
    63   28   64 1
    64   29   65 1
    65   29   66 1
    66   30   35 ar
    67   30   31 ar
    68   31   32 ar
    69   31   67 1
    70   32   33 ar
    71   32   68 1
    72   33   34 ar
    73   33   36 1
    74   34   35 ar
    75   34   69 1
    76   35   70 1
    77   71   72 1
@<TRIPOS>MOLECULE
ZINC22916689
   61    64     0     0     0
SMALL
USER_CHARGES
(2S)-1-(4-benzhydrylpiperazin-1-yl)-3-(4-bromophenoxy)propan-2-ol
@<TRIPOS>ATOM
      1 C1          0.1715   -1.7406   -9.2856 C.ar      1 <0>        -0.0924
      2 C2         -0.2408   -0.4308   -9.4444 C.ar      1 <0>        -0.1035
      3 C3         -0.9411    0.2007   -8.4336 C.ar      1 <0>        -0.0868
      4 C4         -1.2286   -0.4775   -7.2638 C.ar      1 <0>        -0.1299
      5 C5         -0.8113   -1.7854   -7.1028 C.ar      1 <0>        -0.1205
      6 C6         -0.1156   -2.4186   -8.1157 C.ar      1 <0>        -0.1028
      7 C7         -1.9916    0.2111   -6.1617 C.3       1 <0>         0.1384
      8 C8         -3.4153   -0.2828   -6.1519 C.ar      1 <0>        -0.1304
      9 C9         -3.7065   -1.5428   -5.6634 C.ar      1 <0>        -0.1196
     10 C10        -5.0131   -1.9940   -5.6500 C.ar      1 <0>        -0.1043
     11 C11        -6.0272   -1.1891   -6.1343 C.ar      1 <0>        -0.0919
     12 C12        -5.7354    0.0687   -6.6280 C.ar      1 <0>        -0.1042
     13 C13        -4.4295    0.5219   -6.6367 C.ar      1 <0>        -0.0866
     14 N1         -1.3609   -0.0873   -4.8690 N.4       1 <0>        -0.3988
     15 C14         0.0091    0.4419   -4.8168 C.3       1 <0>         0.0009
     16 C15         0.6572    0.0424   -3.4891 C.3       1 <0>         0.0282
     17 N2         -0.1488    0.5646   -2.3768 N.3       1 <0>        -0.5234
     18 C16        -1.5188    0.0353   -2.4290 C.3       1 <0>         0.0228
     19 C17        -2.1669    0.4349   -3.7567 C.3       1 <0>        -0.0003
     20 C18         0.4819    0.2661   -1.0841 C.3       1 <0>         0.0626
     21 C19        -0.2427    1.0307    0.0255 C.3       1 <0>         0.1270
     22 H1         -1.3160    0.7901    0.0403 H         1 <0>         0.0630
     23 C20         0.4143    0.7199    1.3719 C.3       1 <0>         0.0211
     24 O1         -0.3323    1.3402    2.4207 O.3       1 <0>        -0.3123
     25 C21         0.1206    1.1612    3.6896 C.ar      1 <0>         0.1413
     26 C22         1.2567    0.3994    3.9207 C.ar      1 <0>        -0.2027
     27 C23         1.7188    0.2239    5.2107 C.ar      1 <0>        -0.0490
     28 C24         1.0427    0.7974    6.2727 C.ar      1 <0>        -0.1257
     29 C25        -0.0940    1.5523    6.0450 C.ar      1 <0>        -0.0489
     30 C26        -0.5559    1.7354    4.7560 C.ar      1 <0>        -0.1431
     31 Br1         1.6735    0.5495    8.0381 Br        1 <0>        -0.0408
     32 O2         -0.1613    2.4341   -0.2315 O.3       1 <0>        -0.5815
     33 H2          0.7183   -2.2341  -10.0755 H         1 <0>         0.1359
     34 H3         -0.0162    0.0991  -10.3583 H         1 <0>         0.1373
     35 H4         -1.2632    1.2241   -8.5576 H         1 <0>         0.1330
     36 H5         -1.0321   -2.3138   -6.1871 H         1 <0>         0.1145
     37 H6          0.2069   -3.4419   -7.9915 H         1 <0>         0.1350
     38 H7         -1.9695    1.3009   -6.3092 H         1 <0>         0.1453
     39 H8         -2.9136   -2.1732   -5.2888 H         1 <0>         0.1152
     40 H9         -5.2410   -2.9767   -5.2645 H         1 <0>         0.1349
     41 H10        -7.0475   -1.5431   -6.1272 H         1 <0>         0.1358
     42 H11        -6.5277    0.6973   -7.0068 H         1 <0>         0.1372
     43 H12        -4.2014    1.5045   -7.0224 H         1 <0>         0.1329
     44 H13         0.5943    0.0274   -5.6509 H         1 <0>         0.1368
     45 H14        -0.0181    1.5386   -4.8973 H         1 <0>         0.1385
     46 H15         0.7095   -1.0543   -3.4220 H         1 <0>         0.0592
     47 H16         1.6727    0.4619   -3.4359 H         1 <0>         0.1261
     48 H17        -1.4915   -1.0614   -2.3486 H         1 <0>         0.0588
     49 H18        -2.1040    0.4496   -1.5948 H         1 <0>         0.1250
     50 H19        -2.2191    1.5315   -3.8250 H         1 <0>         0.1384
     51 H20        -3.1823    0.0154   -3.8111 H         1 <0>         0.1372
     52 H21         0.4192   -0.8142   -0.8863 H         1 <0>         0.0641
     53 H22         1.5378    0.5731   -1.1117 H         1 <0>         0.1007
     54 H23         0.4319   -0.3687    1.5287 H         1 <0>         0.0713
     55 H24         1.4437    1.1076    1.3758 H         1 <0>         0.0784
     56 H25         1.7823   -0.0521    3.0923 H         1 <0>         0.1343
     57 H26         2.6060   -0.3651    5.3906 H         1 <0>         0.1378
     58 H27        -0.6204    1.9991    6.8754 H         1 <0>         0.1433
     59 H28        -1.4430    2.3254    4.5786 H         1 <0>         0.1415
     60 H29        -0.6277    3.1484    0.4630 H         1 <0>         0.4195
     61 H30        -1.3069   -1.1810   -4.7651 H         1 <0>         0.4264
@<TRIPOS>BOND
     1    1    6 ar
     2    1    2 ar
     3    1   33 1
     4    2    3 ar
     5    2   34 1
     6    3    4 ar
     7    3   35 1
     8    4    5 ar
     9    4    7 1
    10    5    6 ar
    11    5   36 1
    12    6   37 1
    13    7    8 1
    14    7   14 1
    15    7   38 1
    16    8   13 ar
    17    8    9 ar
    18    9   10 ar
    19    9   39 1
    20   10   11 ar
    21   10   40 1
    22   11   12 ar
    23   11   41 1
    24   12   13 ar
    25   12   42 1
    26   13   43 1
    27   14   19 1
    28   14   15 1
    29   14   61 1
    30   15   16 1
    31   15   44 1
    32   15   45 1
    33   16   17 1
    34   16   46 1
    35   16   47 1
    36   17   18 1
    37   17   20 1
    38   18   19 1
    39   18   48 1
    40   18   49 1
    41   19   50 1
    42   19   51 1
    43   20   21 1
    44   20   52 1
    45   20   53 1
    46   21   22 1
    47   21   23 1
    48   21   32 1
    49   23   24 1
    50   23   54 1
    51   23   55 1
    52   24   25 1
    53   25   30 ar
    54   25   26 ar
    55   26   27 ar
    56   26   56 1
    57   27   28 ar
    58   27   57 1
    59   28   29 ar
    60   28   31 1
    61   29   30 ar
    62   29   58 1
    63   30   59 1
    64   32   60 1
@<TRIPOS>MOLECULE
ZINC39227146
   66    70     0     0     0
SMALL
USER_CHARGES

@<TRIPOS>ATOM
      1 C1          0.0024    1.5277    0.0265 C.3       1 <0>        -0.0920
      2 C2          0.0229    0.0209    0.0103 C.ar      1 <0>        -0.1610
      3 C3          0.0320   -0.6609   -1.1983 C.ar      1 <0>         0.2042
      4 C4          0.0505   -2.0529   -1.2259 C.ar      1 <0>        -0.2398
      5 C5          0.0567   -2.7648   -0.0599 C.ar      1 <0>         0.0149
      6 C6          0.0458   -2.0914    1.1647 C.ar      1 <0>        -0.2846
      7 C7          0.0385   -0.6855    1.2018 C.ar      1 <0>         0.2036
      8 O1          0.0492   -0.0222    2.3815 O.3       1 <0>        -0.2956
      9 C8         -0.3992   -0.6988    3.5543 C.3       1 <0>         0.1172
     10 C9         -0.1150    0.1627    4.7871 C.3       1 <0>        -0.1277
     11 C10        -0.9230    1.4590    4.6945 C.3       1 <0>        -0.0071
     12 N1         -2.3552    1.1438    4.6326 N.4       1 <0>        -0.3703
     13 C11        -2.6455    0.3797    3.4134 C.3       1 <0>        -0.0141
     14 C12        -1.9043   -0.9585    3.4570 C.3       1 <0>        -0.1718
     15 C13        -3.1297    2.3920    4.6223 C.3       1 <0>        -0.0286
     16 C14        -4.6008    2.0709    4.6828 C.2       1 <0>         0.5010
     17 O2         -4.9680    0.9158    4.7297 O.2       1 <0>        -0.5100
     18 N2         -5.5085    3.0671    4.6846 N.am      1 <0>        -0.6419
     19 C15        -6.8760    2.7685    4.6426 C.ar      1 <0>         0.1038
     20 C16        -7.3627    1.6453    5.2980 C.ar      1 <0>        -0.0836
     21 C17        -8.7118    1.3525    5.2553 C.ar      1 <0>        -0.1368
     22 C18        -9.5787    2.1779    4.5592 C.ar      1 <0>         0.1073
     23 C19        -9.0953    3.2985    3.9049 C.ar      1 <0>        -0.1341
     24 C20        -7.7478    3.5983    3.9503 C.ar      1 <0>        -0.0991
     25 F1        -10.8979    1.8893    4.5179 F         1 <0>        -0.1294
     26 C21         0.3396   -2.0370    3.6901 C.3       1 <0>        -0.1918
     27 C22         0.0449   -2.8381    2.4319 C.2       1 <0>         0.3992
     28 O3         -0.1679   -4.0321    2.4689 O.2       1 <0>        -0.4319
     29 O4          0.0225    0.0347   -2.3630 O.3       1 <0>        -0.2944
     30 C23         0.0327   -0.7256   -3.5729 C.3       1 <0>         0.0999
     31 C24         0.0199    0.2100   -4.7542 C.ar      1 <0>        -0.1060
     32 C25        -1.1831    0.6273   -5.2924 C.ar      1 <0>        -0.0944
     33 C26        -1.1948    1.4855   -6.3760 C.ar      1 <0>        -0.1222
     34 C27        -0.0036    1.9267   -6.9212 C.ar      1 <0>        -0.1030
     35 C28         1.1994    1.5101   -6.3825 C.ar      1 <0>        -0.1212
     36 C29         1.2111    0.6553   -5.2961 C.ar      1 <0>        -0.0932
     37 H1          1.0250    1.9050    0.0253 H         1 <0>         0.0721
     38 H2         -0.5209    1.8935   -0.8570 H         1 <0>         0.0743
     39 H3         -0.5118    1.8744    0.9229 H         1 <0>         0.0587
     40 H4          0.0595   -2.5719   -2.1730 H         1 <0>         0.1427
     41 H5          0.0703   -3.8445   -0.0844 H         1 <0>         0.1435
     42 H6         -0.4030   -0.3822    5.6861 H         1 <0>         0.1159
     43 H7          0.9483    0.3988    4.8289 H         1 <0>         0.1321
     44 H8         -0.7244    2.0740    5.5723 H         1 <0>         0.1414
     45 H9         -0.6323    2.0044    3.7966 H         1 <0>         0.1413
     46 H10        -3.7181    0.1984    3.3455 H         1 <0>         0.1527
     47 H11        -2.3180    0.9477    2.5426 H         1 <0>         0.1320
     48 H12        -2.1184   -1.5229    2.5495 H         1 <0>         0.1178
     49 H13        -2.2323   -1.5281    4.3266 H         1 <0>         0.1123
     50 H14        -2.8542    2.9976    5.4857 H         1 <0>         0.1666
     51 H15        -2.9158    2.9448    3.7076 H         1 <0>         0.1647
     52 H16        -5.2146    3.9910    4.7150 H         1 <0>         0.4221
     53 H17        -6.6868    1.0009    5.8404 H         1 <0>         0.1475
     54 H18        -9.0907    0.4789    5.7649 H         1 <0>         0.1455
     55 H19        -9.7730    3.9408    3.3622 H         1 <0>         0.1480
     56 H20        -7.3719    4.4748    3.4436 H         1 <0>         0.1412
     57 H21         1.4112   -1.8612    3.7842 H         1 <0>         0.1250
     58 H22        -0.0269   -2.5761    4.5637 H         1 <0>         0.1170
     59 H23         0.9311   -1.3418   -3.6072 H         1 <0>         0.0795
     60 H24        -0.8487   -1.3660   -3.6070 H         1 <0>         0.0787
     61 H25        -2.1137    0.2826   -4.8664 H         1 <0>         0.1235
     62 H26        -2.1347    1.8110   -6.7969 H         1 <0>         0.1277
     63 H27        -0.0128    2.5967   -7.7682 H         1 <0>         0.1277
     64 H28         2.1300    1.8546   -6.8086 H         1 <0>         0.1284
     65 H29         2.1509    0.3328   -4.8729 H         1 <0>         0.1249
     66 H30        -2.6133    0.5970    5.4403 H         1 <0>         0.4296
@<TRIPOS>BOND
     1    1    2 1
     2    1   37 1
     3    1   38 1
     4    1   39 1
     5    2    7 ar
     6    2    3 ar
     7    3    4 ar
     8    3   29 1
     9    4    5 ar
    10    4   40 1
    11    5    6 ar
    12    5   41 1
    13    6   27 1
    14    6    7 ar
    15    7    8 1
    16    8    9 1
    17    9   14 1
    18    9   10 1
    19    9   26 1
    20   10   11 1
    21   10   42 1
    22   10   43 1
    23   11   12 1
    24   11   44 1
    25   11   45 1
    26   12   13 1
    27   12   15 1
    28   12   66 1
    29   13   14 1
    30   13   46 1
    31   13   47 1
    32   14   48 1
    33   14   49 1
    34   15   16 1
    35   15   50 1
    36   15   51 1
    37   16   17 2
    38   16   18 am
    39   18   19 1
    40   18   52 1
    41   19   24 ar
    42   19   20 ar
    43   20   21 ar
    44   20   53 1
    45   21   22 ar
    46   21   54 1
    47   22   23 ar
    48   22   25 1
    49   23   24 ar
    50   23   55 1
    51   24   56 1
    52   26   27 1
    53   26   57 1
    54   26   58 1
    55   27   28 2
    56   29   30 1
    57   30   31 1
    58   30   59 1
    59   30   60 1
    60   31   36 ar
    61   31   32 ar
    62   32   33 ar
    63   32   61 1
    64   33   34 ar
    65   33   62 1
    66   34   35 ar
    67   34   63 1
    68   35   36 ar
    69   35   64 1
    70   36   65 1
@<TRIPOS>MOLECULE
ZINC44910617
   63    66     0     0     0
SMALL
USER_CHARGES

@<TRIPOS>ATOM
      1 C1         -0.0165    1.3785    0.0260 C.ar      1 <0>        -0.0460
      2 C2          1.1691    2.0867    0.0185 C.ar      1 <0>        -0.2045
      3 C3          2.3811    1.4088   -0.0131 C.ar      1 <0>         0.2393
      4 C4          2.3961    0.0200   -0.0370 C.ar      1 <0>        -0.2047
      5 C5          1.2069   -0.6821   -0.0294 C.ar      1 <0>        -0.0459
      6 C6          0.0021   -0.0041    0.0020 C.ar      1 <0>        -0.1883
      7 C7         -1.2936   -0.7735    0.0107 C.3       1 <0>         0.1705
      8 N1         -1.7368   -0.9993   -1.3673 N.am      1 <0>        -0.7119
      9 C8         -2.8802   -1.6717   -1.6059 C.2       1 <0>         0.5204
     10 O1         -3.5423   -2.0899   -0.6797 O.2       1 <0>        -0.5321
     11 C9         -3.3361   -1.9039   -3.0234 C.3       1 <0>        -0.1313
     12 H1         -2.5785   -2.4746   -3.5604 H         1 <0>         0.1201
     13 C10        -3.5499   -0.5564   -3.7190 C.3       1 <0>        -0.1304
     14 C11        -4.0874   -0.8021   -5.1318 C.3       1 <0>        -0.1409
     15 C12        -5.3769   -1.6214   -5.0457 C.3       1 <0>        -0.0173
     16 N2         -5.1010   -2.9078   -4.3950 N.4       1 <0>        -0.3811
     17 C13        -4.6529   -2.6833   -3.0155 C.3       1 <0>         0.0111
     18 C14        -6.3238   -3.7218   -4.3847 C.3       1 <0>         0.0436
     19 C15        -6.7108   -4.0650   -5.8001 C.ar      1 <0>        -0.1475
     20 C16        -7.5467   -3.2243   -6.5112 C.ar      1 <0>        -0.0902
     21 C17        -7.9015   -3.5384   -7.8095 C.ar      1 <0>        -0.0870
     22 C18        -7.4201   -4.6943   -8.3975 C.ar      1 <0>        -0.0639
     23 C19        -6.5838   -5.5353   -7.6856 C.ar      1 <0>        -0.0861
     24 C20        -6.2253   -5.2176   -6.3891 C.ar      1 <0>        -0.0858
     25 Br1        -7.9057   -5.1250  -10.1736 Br        1 <0>        -0.0166
     26 N3          3.5820    2.1220   -0.0212 N.pl3     1 <0>        -0.6228
     27 C21         4.8700    1.4204    0.0669 C.3       1 <0>         0.1159
     28 C22         5.7532    1.8621   -1.1042 C.3       1 <0>        -0.1368
     29 C23         5.8675    3.3882   -1.1045 C.3       1 <0>        -0.1219
     30 C24         4.4791    4.0055   -1.2870 C.3       1 <0>        -0.1367
     31 C25         3.5816    3.5876   -0.1240 C.3       1 <0>         0.1169
     32 H2         -0.9591    1.9048    0.0550 H         1 <0>         0.1209
     33 H3          1.1539    3.1665    0.0368 H         1 <0>         0.1258
     34 H4          3.3367   -0.5102   -0.0619 H         1 <0>         0.1261
     35 H5          1.2178   -1.7619   -0.0480 H         1 <0>         0.1210
     36 H6         -1.1432   -1.7329    0.5057 H         1 <0>         0.0778
     37 H7         -2.0516   -0.2028    0.5472 H         1 <0>         0.0778
     38 H8         -1.2073   -0.6648   -2.1080 H         1 <0>         0.4042
     39 H9         -4.2691    0.0358   -3.1532 H         1 <0>         0.0903
     40 H10        -2.6017   -0.0220   -3.7776 H         1 <0>         0.0994
     41 H11        -4.2947    0.1534   -5.6136 H         1 <0>         0.1178
     42 H12        -3.3460   -1.3503   -5.7131 H         1 <0>         0.0907
     43 H13        -6.1176   -1.0722   -4.4645 H         1 <0>         0.1315
     44 H14        -5.7624   -1.7979   -6.0499 H         1 <0>         0.1333
     45 H15        -4.5035   -3.6431   -2.5210 H         1 <0>         0.1404
     46 H16        -5.4094   -2.1122   -2.4773 H         1 <0>         0.1393
     47 H17        -6.1447   -4.6394   -3.8243 H         1 <0>         0.1418
     48 H18        -7.1304   -3.1600   -3.9136 H         1 <0>         0.1401
     49 H19        -7.9228   -2.3220   -6.0519 H         1 <0>         0.1413
     50 H20        -8.5548   -2.8817   -8.3648 H         1 <0>         0.1466
     51 H21        -6.2077   -6.4378   -8.1443 H         1 <0>         0.1466
     52 H22        -5.5690   -5.8721   -5.8346 H         1 <0>         0.1418
     53 H23         5.3590    1.6711    1.0082 H         1 <0>         0.0664
     54 H24         4.7043    0.3444    0.0141 H         1 <0>         0.0841
     55 H25         6.7451    1.4230   -0.9977 H         1 <0>         0.0762
     56 H26         5.3068    1.5306   -2.0418 H         1 <0>         0.0656
     57 H27         6.2911    3.7208   -0.1568 H         1 <0>         0.0656
     58 H28         6.5155    3.7037   -1.9222 H         1 <0>         0.0674
     59 H29         4.5641    5.0919   -1.3105 H         1 <0>         0.0765
     60 H30         4.0447    3.6537   -2.2228 H         1 <0>         0.0652
     61 H31         2.5661    3.9411   -0.3028 H         1 <0>         0.0834
     62 H32         3.9632    4.0190    0.8014 H         1 <0>         0.0655
     63 H33        -4.3799   -3.3943   -4.9062 H         1 <0>         0.4217
@<TRIPOS>BOND
     1    1    6 ar
     2    1    2 ar
     3    1   32 1
     4    2    3 ar
     5    2   33 1
     6    3    4 ar
     7    3   26 1
     8    4    5 ar
     9    4   34 1
    10    5    6 ar
    11    5   35 1
    12    6    7 1
    13    7    8 1
    14    7   36 1
    15    7   37 1
    16    8    9 am
    17    8   38 1
    18    9   10 2
    19    9   11 1
    20   11   12 1
    21   11   17 1
    22   11   13 1
    23   13   14 1
    24   13   39 1
    25   13   40 1
    26   14   15 1
    27   14   41 1
    28   14   42 1
    29   15   16 1
    30   15   43 1
    31   15   44 1
    32   16   17 1
    33   16   18 1
    34   16   63 1
    35   17   45 1
    36   17   46 1
    37   18   19 1
    38   18   47 1
    39   18   48 1
    40   19   24 ar
    41   19   20 ar
    42   20   21 ar
    43   20   49 1
    44   21   22 ar
    45   21   50 1
    46   22   23 ar
    47   22   25 1
    48   23   24 ar
    49   23   51 1
    50   24   52 1
    51   26   31 1
    52   26   27 1
    53   27   28 1
    54   27   53 1
    55   27   54 1
    56   28   29 1
    57   28   55 1
    58   28   56 1
    59   29   30 1
    60   29   57 1
    61   29   58 1
    62   30   31 1
    63   30   59 1
    64   30   60 1
    65   31   61 1
    66   31   62 1
@<TRIPOS>MOLECULE
ZINC63752565
   60    64     0     0     0
SMALL
USER_CHARGES

@<TRIPOS>ATOM
      1 C1         -2.2865    1.1011    0.5293 C.3       1 <0>        -0.1218
      2 C2         -1.6138   -0.2411    0.3983 C.ar      1 <0>        -0.1282
      3 C3         -1.4861   -0.8188   -0.8677 C.ar      1 <0>         0.0609
      4 C4         -0.8912   -2.0227   -1.0485 C.ar      1 <0>        -0.2047
      5 C5         -0.3775   -2.7312    0.0687 C.ar      1 <0>         0.3341
      6 N1          0.2325   -3.8960    0.1574 N.pl3     1 <0>        -0.5876
      7 C6          0.5564   -4.1617    1.5626 C.3       1 <0>         0.0935
      8 H1          0.0557   -5.0699    1.8981 H         1 <0>         0.1869
      9 C7          0.0475   -2.9685    2.3406 C.2       1 <0>         0.2906
     10 C8         -0.5139   -2.1193    1.4014 C.ar      1 <0>        -0.1753
     11 C9         -1.1425   -0.8561    1.5112 C.ar      1 <0>         0.0050
     12 N2          0.1246   -2.7708    3.6846 N.am      1 <0>        -0.6253
     13 C10         0.2508   -1.5221    4.1759 C.2       1 <0>         0.5630
     14 O1          0.2583   -0.5699    3.4208 O.2       1 <0>        -0.4569
     15 C11         0.3801   -1.3110    5.6319 C.ar      1 <0>        -0.1550
     16 C12         0.3775   -2.4037    6.5018 C.ar      1 <0>        -0.0694
     17 C13         0.4985   -2.2001    7.8601 C.ar      1 <0>        -0.1116
     18 C14         0.6224   -0.9151    8.3624 C.ar      1 <0>         0.0081
     19 C15         0.6251    0.1728    7.5048 C.ar      1 <0>        -0.1120
     20 C16         0.5111   -0.0182    6.1441 C.ar      1 <0>        -0.0281
     21 Cl1         0.7743   -0.6669   10.0739 Cl        1 <0>        -0.0340
     22 C17         2.0474   -4.2978    1.7348 C.2       1 <0>         0.5198
     23 O2          2.7978   -3.8650    0.8860 O.2       1 <0>        -0.4832
     24 N3          2.5468   -4.9005    2.8319 N.am      1 <0>        -0.5909
     25 C18         1.6493   -5.4351    3.8656 C.3       1 <0>         0.0687
     26 C19         1.9801   -6.9168    4.0834 C.3       1 <0>         0.1096
     27 N4          3.4320   -7.0516    4.2673 N.pl3     1 <0>        -0.6336
     28 C20         4.3295   -6.5170    3.2336 C.3       1 <0>         0.1073
     29 C21         3.9985   -5.0404    3.0131 C.3       1 <0>         0.0953
     30 C22         3.9496   -7.6763    5.4043 C.ar      1 <0>         0.2064
     31 C23         3.0943   -8.2832    6.3153 C.ar      1 <0>        -0.1957
     32 C24         3.6094   -8.9003    7.4383 C.ar      1 <0>        -0.0709
     33 C25         4.9749   -8.9142    7.6566 C.ar      1 <0>        -0.1668
     34 C26         5.8291   -8.3109    6.7517 C.ar      1 <0>        -0.0694
     35 C27         5.3211   -7.6970    5.6238 C.ar      1 <0>        -0.1926
     36 H2         -1.5418    1.8914    0.4347 H         1 <0>         0.0844
     37 H3         -3.0345    1.2108   -0.2560 H         1 <0>         0.0798
     38 H4         -2.7696    1.1718    1.5038 H         1 <0>         0.0770
     39 H5         -1.8730   -0.2907   -1.7267 H         1 <0>         0.1615
     40 H6         -0.8085   -2.4422   -2.0403 H         1 <0>         0.1638
     41 H7         -1.2497   -0.3857    2.4775 H         1 <0>         0.1685
     42 H8          0.0886   -3.5285    4.2892 H         1 <0>         0.4317
     43 H9          0.2807   -3.4060    6.1114 H         1 <0>         0.1306
     44 H10         0.4963   -3.0442    8.5338 H         1 <0>         0.1513
     45 H11         0.7217    1.1722    7.9025 H         1 <0>         0.1535
     46 H12         0.5182    0.8304    5.4760 H         1 <0>         0.1536
     47 H13         1.7956   -4.8870    4.7963 H         1 <0>         0.0933
     48 H14         0.6143   -5.3357    3.5385 H         1 <0>         0.0803
     49 H15         1.4636   -7.2803    4.9717 H         1 <0>         0.1081
     50 H16         1.6665   -7.4934    3.2132 H         1 <0>         0.0736
     51 H17         5.3645   -6.6165    3.5607 H         1 <0>         0.1076
     52 H18         4.1832   -7.0652    2.3029 H         1 <0>         0.0720
     53 H19         4.5146   -4.6803    2.1232 H         1 <0>         0.1121
     54 H20         4.3160   -4.4634    3.8817 H         1 <0>         0.0882
     55 H21         2.0278   -8.2722    6.1457 H         1 <0>         0.1206
     56 H22         2.9451   -9.3724    8.1469 H         1 <0>         0.1242
     57 H23         5.3751   -9.3969    8.5359 H         1 <0>         0.1227
     58 H24         6.8950   -8.3235    6.9252 H         1 <0>         0.1248
     59 H25         5.9890   -7.2300    4.9152 H         1 <0>         0.1224
     60 H26         0.4343   -4.4837   -0.5874 H         1 <0>         0.4585
@<TRIPOS>BOND
     1    1    2 1
     2    1   36 1
     3    1   37 1
     4    1   38 1
     5    2   11 ar
     6    2    3 ar
     7    3    4 ar
     8    3   39 1
     9    4    5 ar
    10    4   40 1
    11    5   10 ar
    12    5    6 2
    13    6    7 1
    14    6   60 1
    15    7    8 1
    16    7    9 1
    17    7   22 1
    18    9   10 2
    19    9   12 1
    20   10   11 ar
    21   11   41 1
    22   12   13 am
    23   12   42 1
    24   13   14 2
    25   13   15 1
    26   15   20 ar
    27   15   16 ar
    28   16   17 ar
    29   16   43 1
    30   17   18 ar
    31   17   44 1
    32   18   19 ar
    33   18   21 1
    34   19   20 ar
    35   19   45 1
    36   20   46 1
    37   22   23 2
    38   22   24 am
    39   24   29 1
    40   24   25 1
    41   25   26 1
    42   25   47 1
    43   25   48 1
    44   26   27 1
    45   26   49 1
    46   26   50 1
    47   27   28 1
    48   27   30 1
    49   28   29 1
    50   28   51 1
    51   28   52 1
    52   29   53 1
    53   29   54 1
    54   30   35 ar
    55   30   31 ar
    56   31   32 ar
    57   31   55 1
    58   32   33 ar
    59   32   56 1
    60   33   34 ar
    61   33   57 1
    62   34   35 ar
    63   34   58 1
    64   35   59 1
@<TRIPOS>MOLECULE
ZINC08915217
   50    53     0     0     0
SMALL
USER_CHARGES
5-bromo-2-methylsulfanyl-N-[8-(tetrahydrofuran-2-ylmethylcarbamoyl)-6-thiabicyclo[3.3.0]octa-7,9-dien-7-yl]-pyrimidine-4-carboxamide
@<TRIPOS>ATOM
      1 C1         -4.8076    6.6321   -7.6978 C.3       1 <0>        -0.1517
      2 S1         -4.7480    5.3361   -6.4357 S.3       1 <0>         0.0365
      3 C2         -6.3130    5.5865   -5.6658 C.ar      1 <0>         0.3033
      4 N1         -7.1067    6.5500   -6.1149 N.ar      1 <0>        -0.4990
      5 C3         -8.2872    6.7700   -5.5648 C.ar      1 <0>         0.2074
      6 C4         -8.6981    5.9774   -4.5002 C.ar      1 <0>        -0.1691
      7 C5         -7.8400    4.9719   -4.0508 C.ar      1 <0>         0.1772
      8 N2         -6.6630    4.8125   -4.6517 N.ar      1 <0>        -0.4740
      9 C6         -8.2313    4.0988   -2.9174 C.2       1 <0>         0.5613
     10 O1         -9.3059    4.2558   -2.3725 O.2       1 <0>        -0.4533
     11 N3         -7.3950    3.1313   -2.4921 N.am      1 <0>        -0.5949
     12 C7         -7.7604    2.3159   -1.4336 C.2       1 <0>         0.0614
     13 C8         -7.0448    1.2788   -0.8593 C.2       1 <0>        -0.2008
     14 C9         -7.6602    0.5720    0.2632 C.2       1 <0>        -0.0912
     15 C10        -8.8815    1.0128    0.6154 C.2       1 <0>        -0.2304
     16 S2         -9.2235    2.3440   -0.5095 S.3       1 <0>         0.2677
     17 C11        -9.4494    0.2362    1.7725 C.3       1 <0>        -0.0314
     18 C12        -8.5959   -1.0497    1.8346 C.3       1 <0>        -0.1161
     19 C13        -7.2758   -0.5821    1.1901 C.3       1 <0>        -0.0608
     20 C14        -5.7159    0.9069   -1.3547 C.2       1 <0>         0.5784
     21 O2         -5.6055    0.0703   -2.2318 O.2       1 <0>        -0.5295
     22 N4         -4.6165    1.4915   -0.8388 N.am      1 <0>        -0.7176
     23 C15        -3.2887    1.1199   -1.3338 C.3       1 <0>         0.1204
     24 C16        -2.2226    1.9242   -0.5872 C.3       1 <0>         0.0645
     25 H1         -2.4427    2.9892   -0.6610 H         1 <0>         0.0757
     26 C17        -0.8325    1.6338   -1.1855 C.3       1 <0>        -0.1492
     27 C18        -0.0127    1.0858    0.0080 C.3       1 <0>        -0.1558
     28 C19        -0.8104    1.6215    1.2242 C.3       1 <0>         0.0456
     29 O3         -2.1859    1.5242    0.7930 O.3       1 <0>        -0.3707
     30 Br1       -10.3789    6.2542   -3.6792 Br        1 <0>         0.0365
     31 H2         -4.9136    7.6040   -7.2159 H         1 <0>         0.0953
     32 H3         -3.8867    6.6141   -8.2808 H         1 <0>         0.1137
     33 H4         -5.6583    6.4586   -8.3569 H         1 <0>         0.0956
     34 H5         -8.9255    7.5572   -5.9379 H         1 <0>         0.1936
     35 H6         -6.5371    3.0060   -2.9271 H         1 <0>         0.4294
     36 H7        -10.4951   -0.0101    1.5883 H         1 <0>         0.0798
     37 H8         -9.3506    0.8032    2.6982 H         1 <0>         0.0858
     38 H9         -9.0527   -1.8496    1.2518 H         1 <0>         0.0772
     39 H10        -8.4367   -1.3634    2.8663 H         1 <0>         0.0846
     40 H11        -6.8280   -1.3935    0.6163 H         1 <0>         0.0739
     41 H12        -6.5837   -0.2351    1.9573 H         1 <0>         0.0818
     42 H13        -4.7044    2.1582   -0.1398 H         1 <0>         0.4051
     43 H14        -3.2253    1.3349   -2.4005 H         1 <0>         0.0823
     44 H15        -3.1236    0.0554   -1.1673 H         1 <0>         0.0775
     45 H16        -0.3830    2.5499   -1.5684 H         1 <0>         0.0814
     46 H17        -0.9034    0.8857   -1.9750 H         1 <0>         0.0838
     47 H18         0.0021   -0.0041    0.0020 H         1 <0>         0.0792
     48 H19         1.0008    1.4868    0.0005 H         1 <0>         0.0827
     49 H20        -0.6374    0.9981    2.1014 H         1 <0>         0.0949
     50 H21        -0.5453    2.6584    1.4306 H         1 <0>         0.0623
@<TRIPOS>BOND
     1    1    2 1
     2    1   31 1
     3    1   32 1
     4    1   33 1
     5    2    3 1
     6    3    8 ar
     7    3    4 ar
     8    4    5 ar
     9    5    6 ar
    10    5   34 1
    11    6    7 ar
    12    6   30 1
    13    7    8 ar
    14    7    9 1
    15    9   10 2
    16    9   11 am
    17   11   12 1
    18   11   35 1
    19   12   16 1
    20   12   13 2
    21   13   14 1
    22   13   20 1
    23   14   19 1
    24   14   15 2
    25   15   16 1
    26   15   17 1
    27   17   18 1
    28   17   36 1
    29   17   37 1
    30   18   19 1
    31   18   38 1
    32   18   39 1
    33   19   40 1
    34   19   41 1
    35   20   21 2
    36   20   22 am
    37   22   23 1
    38   22   42 1
    39   23   24 1
    40   23   43 1
    41   23   44 1
    42   24   25 1
    43   24   29 1
    44   24   26 1
    45   26   27 1
    46   26   45 1
    47   26   46 1
    48   27   28 1
    49   27   47 1
    50   27   48 1
    51   28   29 1
    52   28   49 1
    53   28   50 1
@<TRIPOS>MOLECULE
ZINC12490620
   45    46     0     0     0
SMALL
USER_CHARGES
(E)-N'-[2-(2,4-dibromo-6-methyl-phenoxy)acetyl]-3-(4-methoxyphenyl)prop-2-enehydrazide
@<TRIPOS>ATOM
      1 C1          7.0977    1.6475   -2.5633 C.3       1 <0>        -0.1133
      2 C2          7.8092    1.3635   -1.2656 C.ar      1 <0>        -0.0820
      3 C3          9.0934    0.8532   -1.2785 C.ar      1 <0>        -0.0653
      4 C4          9.7471    0.5918   -0.0880 C.ar      1 <0>        -0.0850
      5 C5          9.1174    0.8409    1.1186 C.ar      1 <0>        -0.0574
      6 C6          7.8350    1.3557    1.1363 C.ar      1 <0>        -0.1009
      7 C7          7.1755    1.6137   -0.0578 C.ar      1 <0>         0.1298
      8 O1          5.9126    2.1161   -0.0430 O.3       1 <0>        -0.2934
      9 C8          4.8391    1.1728   -0.0378 C.3       1 <0>         0.0554
     10 C9          3.5240    1.9085   -0.0213 C.2       1 <0>         0.5189
     11 O2          3.5076    3.1212   -0.0147 O.2       1 <0>        -0.5081
     12 N1          2.3661    1.2188   -0.0140 N.am      1 <0>        -0.5204
     13 N2          1.1435    1.9027    0.0014 N.am      1 <0>        -0.5164
     14 C10        -0.0144    1.2130    0.0087 C.2       1 <0>         0.5553
     15 O3          0.0021   -0.0041    0.0020 O.2       1 <0>        -0.5448
     16 C11        -1.2909    1.9270    0.0186 C.2       1 <0>        -0.2277
     17 C12        -2.4505    1.2363    0.0204 C.2       1 <0>         0.0140
     18 C13        -3.7334    1.9539    0.0304 C.ar      1 <0>        -0.1263
     19 C14        -3.7551    3.3534    0.0439 C.ar      1 <0>        -0.0532
     20 C15        -4.9592    4.0207    0.0479 C.ar      1 <0>        -0.2136
     21 C16        -6.1522    3.3069    0.0497 C.ar      1 <0>         0.1468
     22 C17        -6.1361    1.9168    0.0420 C.ar      1 <0>        -0.1563
     23 C18        -4.9374    1.2400    0.0322 C.ar      1 <0>        -0.0473
     24 O4         -7.3368    3.9696    0.0594 O.3       1 <0>        -0.3136
     25 C19        -7.2814    5.3975    0.0669 C.3       1 <0>         0.0243
     26 Br1         6.9770    1.7023    2.7854 Br        1 <0>        -0.0181
     27 Br2        11.5043   -0.1065   -0.1094 Br        1 <0>        -0.0275
     28 H1          7.3054    2.6711   -2.8751 H         1 <0>         0.0846
     29 H2          7.4490    0.9561   -3.3292 H         1 <0>         0.0765
     30 H3          6.0241    1.5208   -2.4243 H         1 <0>         0.0714
     31 H4          9.5871    0.6587   -2.2192 H         1 <0>         0.1476
     32 H5          9.6296    0.6361    2.0471 H         1 <0>         0.1496
     33 H6          4.9139    0.5422    0.8481 H         1 <0>         0.0959
     34 H7          4.8969    0.5518   -0.9318 H         1 <0>         0.0967
     35 H8          2.3793    0.2489   -0.0193 H         1 <0>         0.4340
     36 H9          1.1303    2.8726    0.0067 H         1 <0>         0.4345
     37 H10        -1.3055    3.0069    0.0246 H         1 <0>         0.1343
     38 H11        -2.4359    0.1564    0.0145 H         1 <0>         0.1390
     39 H12        -2.8289    3.9088    0.0471 H         1 <0>         0.1323
     40 H13        -4.9771    5.1005    0.0543 H         1 <0>         0.1337
     41 H14        -7.0656    1.3670    0.0435 H         1 <0>         0.1371
     42 H15        -4.9260    0.1601    0.0263 H         1 <0>         0.1381
     43 H16        -6.7493    5.7358    0.9560 H         1 <0>         0.0586
     44 H17        -6.7584    5.7455   -0.8239 H         1 <0>         0.0586
     45 H18        -8.2942    5.8004    0.0743 H         1 <0>         0.1037
@<TRIPOS>BOND
     1    1    2 1
     2    1   28 1
     3    1   29 1
     4    1   30 1
     5    2    7 ar
     6    2    3 ar
     7    3    4 ar
     8    3   31 1
     9    4    5 ar
    10    4   27 1
    11    5    6 ar
    12    5   32 1
    13    6    7 ar
    14    6   26 1
    15    7    8 1
    16    8    9 1
    17    9   10 1
    18    9   33 1
    19    9   34 1
    20   10   11 2
    21   10   12 am
    22   12   13 1
    23   12   35 1
    24   13   14 am
    25   13   36 1
    26   14   15 2
    27   14   16 1
    28   16   17 2
    29   16   37 1
    30   17   18 1
    31   17   38 1
    32   18   23 ar
    33   18   19 ar
    34   19   20 ar
    35   19   39 1
    36   20   21 ar
    37   20   40 1
    38   21   22 ar
    39   21   24 1
    40   22   23 ar
    41   22   41 1
    42   23   42 1
    43   24   25 1
    44   25   43 1
    45   25   44 1
    46   25   45 1
@<TRIPOS>MOLECULE
ZINC15023235
   61    65     0     0     0
SMALL
USER_CHARGES
(1R,2R,3S,3aS)-1-benzoyl-3-cyano-2-(3,4-dimethoxyphenyl)-7-fluoro-2,3a-dihydro-1H-pyrrolo[1,2-a]quinoline-3-carboxamide
@<TRIPOS>ATOM
      1 C1         -0.4360   -4.1225   -4.0367 C.3       1 <0>         0.0241
      2 O1         -1.5542   -3.3092   -3.6760 O.3       1 <0>        -0.3037
      3 C2         -1.2860   -2.1388   -3.0374 C.ar      1 <0>         0.1143
      4 C3          0.0246   -1.7815   -2.7641 C.ar      1 <0>        -0.1655
      5 C4          0.2956   -0.5912   -2.1153 C.ar      1 <0>        -0.0932
      6 C5         -0.7388    0.2446   -1.7373 C.ar      1 <0>        -0.1022
      7 C6         -2.0488   -0.1084   -2.0023 C.ar      1 <0>        -0.1586
      8 C7         -2.3270   -1.2973   -2.6574 C.ar      1 <0>         0.1041
      9 O2         -3.6150   -1.6437   -2.9234 O.3       1 <0>        -0.3023
     10 C8         -4.6319   -0.7314   -2.5042 C.3       1 <0>         0.0238
     11 C9         -0.4378    1.5405   -1.0294 C.3       1 <0>        -0.0154
     12 H1         -1.3310    1.9173   -0.5312 H         1 <0>         0.1128
     13 C10         0.7069    1.3411   -0.0046 C.3       1 <0>         0.0617
     14 H2          0.9508    0.3722    0.0384 H         1 <0>         0.1230
     15 N1          1.8184    2.1547   -0.4862 N.pl3     1 <0>        -0.4599
     16 C11         2.7542    2.6222    0.4052 C.ar      1 <0>         0.1355
     17 C12         2.8612    2.1437    1.7080 C.ar      1 <0>        -0.1163
     18 C13         3.8132    2.6784    2.5571 C.ar      1 <0>        -0.1207
     19 C14         4.6511    3.6943    2.1239 C.ar      1 <0>         0.0738
     20 C15         4.5468    4.1842    0.8345 C.ar      1 <0>        -0.1118
     21 C16         3.5967    3.6541   -0.0279 C.ar      1 <0>        -0.0597
     22 C17         3.4516    4.1414   -1.4199 C.2       1 <0>        -0.0989
     23 C18         2.2612    3.9692   -2.0212 C.2       1 <0>        -0.1152
     24 C19         1.1955    3.2937   -1.2106 C.3       1 <0>         0.1329
     25 H3          0.7495    3.9967   -0.5071 H         1 <0>         0.0956
     26 C20         0.1039    2.5932   -2.0366 C.3       1 <0>         0.0266
     27 C21        -0.9524    3.5423   -2.4241 C.1       1 <0>         0.2024
     28 N2         -1.7676    4.2747   -2.7232 N.1       1 <0>        -0.3761
     29 C22         0.6943    1.9229   -3.2503 C.2       1 <0>         0.5502
     30 O3          1.8982    1.8650   -3.3857 O.2       1 <0>        -0.4861
     31 N3         -0.1155    1.3876   -4.1853 N.am      1 <0>        -0.8436
     32 F1          5.5747    4.2083    2.9654 F         1 <0>        -0.1407
     33 C23         0.2725    1.8099    1.3602 C.2       1 <0>         0.3635
     34 O4          0.5993    2.9083    1.7563 O.2       1 <0>        -0.4189
     35 C24        -0.5485    0.9347    2.2121 C.ar      1 <0>        -0.1748
     36 C25        -0.9323   -0.3306    1.7565 C.ar      1 <0>        -0.0711
     37 C26        -1.6971   -1.1469    2.5628 C.ar      1 <0>        -0.1292
     38 C27        -2.0940   -0.7126    3.8155 C.ar      1 <0>        -0.0811
     39 C28        -1.7226    0.5403    4.2715 C.ar      1 <0>        -0.1309
     40 C29        -0.9536    1.3662    3.4792 C.ar      1 <0>        -0.0560
     41 H4          0.1169   -4.3988   -3.1389 H         1 <0>         0.0573
     42 H5         -0.7889   -5.0238   -4.5379 H         1 <0>         0.1027
     43 H6          0.2169   -3.5653   -4.7085 H         1 <0>         0.0574
     44 H7          0.8344   -2.4330   -3.0577 H         1 <0>         0.1402
     45 H8          1.3175   -0.3139   -1.9029 H         1 <0>         0.1397
     46 H9         -2.8552    0.5444   -1.7023 H         1 <0>         0.1370
     47 H10        -5.6101   -1.1274   -2.7768 H         1 <0>         0.1032
     48 H11        -4.5807   -0.6019   -1.4232 H         1 <0>         0.0564
     49 H12        -4.4805    0.2311   -2.9930 H         1 <0>         0.0550
     50 H13         2.2124    1.3524    2.0533 H         1 <0>         0.1229
     51 H14         3.9047    2.3014    3.5650 H         1 <0>         0.1353
     52 H15         5.2017    4.9752    0.5000 H         1 <0>         0.1411
     53 H16         4.2732    4.6185   -1.9335 H         1 <0>         0.1368
     54 H17         2.0823    4.2994   -3.0338 H         1 <0>         0.1355
     55 H18        -1.0767    1.4965   -4.1142 H         1 <0>         0.3990
     56 H19         0.2629    0.8935   -4.9293 H         1 <0>         0.4098
     57 H20        -0.6271   -0.6691    0.7774 H         1 <0>         0.1315
     58 H21        -1.9906   -2.1260    2.2142 H         1 <0>         0.1310
     59 H22        -2.6970   -1.3547    4.4405 H         1 <0>         0.1297
     60 H23        -2.0363    0.8720    5.2502 H         1 <0>         0.1314
     61 H24        -0.6652    2.3439    3.8361 H         1 <0>         0.1347
@<TRIPOS>BOND
     1    1    2 1
     2    1   41 1
     3    1   42 1
     4    1   43 1
     5    2    3 1
     6    3    8 ar
     7    3    4 ar
     8    4    5 ar
     9    4   44 1
    10    5    6 ar
    11    5   45 1
    12    6    7 ar
    13    6   11 1
    14    7    8 ar
    15    7   46 1
    16    8    9 1
    17    9   10 1
    18   10   47 1
    19   10   48 1
    20   10   49 1
    21   11   12 1
    22   11   26 1
    23   11   13 1
    24   13   14 1
    25   13   15 1
    26   13   33 1
    27   15   24 1
    28   15   16 1
    29   16   21 ar
    30   16   17 ar
    31   17   18 ar
    32   17   50 1
    33   18   19 ar
    34   18   51 1
    35   19   20 ar
    36   19   32 1
    37   20   21 ar
    38   20   52 1
    39   21   22 1
    40   22   23 2
    41   22   53 1
    42   23   24 1
    43   23   54 1
    44   24   25 1
    45   24   26 1
    46   26   27 1
    47   26   29 1
    48   27   28 3
    49   29   30 2
    50   29   31 am
    51   31   55 1
    52   31   56 1
    53   33   34 2
    54   33   35 1
    55   35   40 ar
    56   35   36 ar
    57   36   37 ar
    58   36   57 1
    59   37   38 ar
    60   37   58 1
    61   38   39 ar
    62   38   59 1
    63   39   40 ar
    64   39   60 1
    65   40   61 1
@<TRIPOS>MOLECULE
ZINC39836471
   66    69     0     0     0
SMALL
USER_CHARGES

@<TRIPOS>ATOM
      1 C1         -0.0187    1.5258    0.0104 C.3       1 <0>        -0.1460
      2 C2          0.0021   -0.0041    0.0020 C.3       1 <0>        -0.0625
      3 C3          0.7421   -0.5109    1.2415 C.3       1 <0>        -0.1479
      4 C4         -1.4333   -0.5336    0.0129 C.3       1 <0>        -0.1451
      5 C5          0.7182   -0.4975   -1.2568 C.3       1 <0>        -0.0697
      6 H1          0.1923   -0.1372   -2.1409 H         1 <0>         0.0760
      7 C6          0.7455   -2.0286   -1.2645 C.3       1 <0>        -0.1166
      8 C7          1.2341   -2.5339   -2.6239 C.3       1 <0>        -0.0580
      9 C8          2.5462   -1.8401   -2.9591 C.2       1 <0>        -0.0612
     10 C9          2.9204   -0.7048   -2.3305 C.2       1 <0>        -0.2230
     11 S1          4.4834   -0.2894   -3.0467 S.3       1 <0>         0.2911
     12 C10         4.6460   -1.5575   -4.1355 C.2       1 <0>         0.0427
     13 C11         3.4956   -2.3097   -3.9529 C.2       1 <0>        -0.2402
     14 C12         3.2482   -3.5279   -4.7300 C.2       1 <0>         0.5865
     15 O1          2.6549   -3.4631   -5.7908 O.2       1 <0>        -0.5233
     16 N1          3.6776   -4.7196   -4.2698 N.am      1 <0>        -0.7131
     17 C13         3.4304   -5.9370   -5.0463 C.3       1 <0>         0.1396
     18 H2          3.4761   -5.7099   -6.1114 H         1 <0>         0.1147
     19 C14         2.0450   -6.5045   -4.6954 C.3       1 <0>        -0.1411
     20 C15         1.9053   -7.9404   -5.2559 C.3       1 <0>        -0.5730
     21 S2          3.6446   -8.5381   -5.2730 S.o2      1 <0>         2.3777
     22 O2          4.0299   -8.8010   -6.6153 O.2       1 <0>        -0.9280
     23 O3          3.7938   -9.5542   -4.2909 O.2       1 <0>        -0.9302
     24 C16         4.4974   -7.0119   -4.6921 C.3       1 <0>        -0.5968
     25 N2          5.6893   -1.7969   -5.0142 N.am      1 <0>        -0.6172
     26 C17         6.7394   -0.9532   -5.0593 C.2       1 <0>         0.5469
     27 O4          6.7708    0.0189   -4.3277 O.2       1 <0>        -0.5040
     28 C18         7.8419   -1.2062   -5.9879 C.2       1 <0>        -0.2272
     29 C19         8.8927   -0.3620   -6.0330 C.2       1 <0>         0.0108
     30 C20        10.0015   -0.6164   -6.9669 C.ar      1 <0>        -0.0887
     31 C21         9.9664   -1.7292   -7.8131 C.ar      1 <0>        -0.0965
     32 C22        11.0091   -1.9607   -8.6852 C.ar      1 <0>        -0.1231
     33 C23        12.0884   -1.0952   -8.7245 C.ar      1 <0>        -0.1011
     34 C24        12.1307    0.0081   -7.8899 C.ar      1 <0>        -0.1231
     35 C25        11.0929    0.2567   -7.0166 C.ar      1 <0>        -0.0883
     36 C26         2.1613    0.0280   -1.2670 C.3       1 <0>        -0.0329
     37 H3          1.0039    1.9031    0.0027 H         1 <0>         0.0577
     38 H4         -0.5459    1.8868   -0.8726 H         1 <0>         0.0553
     39 H5         -0.5289    1.8773    0.9072 H         1 <0>         0.0554
     40 H6          0.2319   -0.1594    2.1383 H         1 <0>         0.0545
     41 H7          0.7568   -1.6008    1.2356 H         1 <0>         0.0576
     42 H8          1.7647   -0.1336    1.2338 H         1 <0>         0.0587
     43 H9         -1.9605   -0.1726   -0.8702 H         1 <0>         0.0549
     44 H10        -1.4185   -1.6235    0.0069 H         1 <0>         0.0585
     45 H11        -1.9435   -0.1821    0.9097 H         1 <0>         0.0554
     46 H12         1.4182   -2.3827   -0.4834 H         1 <0>         0.0689
     47 H13        -0.2583   -2.4095   -1.0761 H         1 <0>         0.0746
     48 H14         1.3915   -3.6115   -2.5783 H         1 <0>         0.0704
     49 H15         0.4923   -2.3024   -3.3882 H         1 <0>         0.0780
     50 H16         4.1505   -4.7713   -3.4244 H         1 <0>         0.4082
     51 H17         1.9265   -6.5258   -3.6120 H         1 <0>         0.0912
     52 H18         1.2731   -5.8696   -5.1303 H         1 <0>         0.1033
     53 H19         1.2920   -8.5547   -4.5968 H         1 <0>         0.1460
     54 H20         1.4927   -7.9230   -6.2646 H         1 <0>         0.1435
     55 H21         5.4234   -6.8444   -5.2422 H         1 <0>         0.1481
     56 H22         4.6803   -7.0469   -3.6181 H         1 <0>         0.1463
     57 H23         5.6643   -2.5717   -5.5972 H         1 <0>         0.4190
     58 H24         7.8141   -2.0688   -6.6370 H         1 <0>         0.1357
     59 H25         8.9205    0.5007   -5.3838 H         1 <0>         0.1409
     60 H26         9.1251   -2.4057   -7.7834 H         1 <0>         0.1273
     61 H27        10.9836   -2.8199   -9.3392 H         1 <0>         0.1281
     62 H28        12.9020   -1.2818   -9.4097 H         1 <0>         0.1269
     63 H29        12.9764    0.6787   -7.9261 H         1 <0>         0.1289
     64 H30        11.1250    1.1206   -6.3694 H         1 <0>         0.1304
     65 H31         2.1617    1.0965   -1.4826 H         1 <0>         0.0814
     66 H32         2.6246   -0.1518   -0.2969 H         1 <0>         0.0869
@<TRIPOS>BOND
     1    1    2 1
     2    1   37 1
     3    1   38 1
     4    1   39 1
     5    2    3 1
     6    2    4 1
     7    2    5 1
     8    3   40 1
     9    3   41 1
    10    3   42 1
    11    4   43 1
    12    4   44 1
    13    4   45 1
    14    5    6 1
    15    5   36 1
    16    5    7 1
    17    7    8 1
    18    7   46 1
    19    7   47 1
    20    8    9 1
    21    8   48 1
    22    8   49 1
    23    9   13 1
    24    9   10 2
    25   10   11 1
    26   10   36 1
    27   11   12 1
    28   12   13 2
    29   12   25 1
    30   13   14 1
    31   14   15 2
    32   14   16 am
    33   16   17 1
    34   16   50 1
    35   17   18 1
    36   17   24 1
    37   17   19 1
    38   19   20 1
    39   19   51 1
    40   19   52 1
    41   20   21 1
    42   20   53 1
    43   20   54 1
    44   21   22 2
    45   21   23 2
    46   21   24 1
    47   24   55 1
    48   24   56 1
    49   25   26 am
    50   25   57 1
    51   26   27 2
    52   26   28 1
    53   28   29 2
    54   28   58 1
    55   29   30 1
    56   29   59 1
    57   30   35 ar
    58   30   31 ar
    59   31   32 ar
    60   31   60 1
    61   32   33 ar
    62   32   61 1
    63   33   34 ar
    64   33   62 1
    65   34   35 ar
    66   34   63 1
    67   35   64 1
    68   36   65 1
    69   36   66 1
@<TRIPOS>MOLECULE
ZINC62566729
   63    66     0     0     0
SMALL
USER_CHARGES

@<TRIPOS>ATOM
      1 C1         -0.0173    1.4248    0.0099 C.3       1 <0>         0.0231
      2 O1          0.0021   -0.0041    0.0020 O.3       1 <0>        -0.3273
      3 C2          0.6258   -0.6184    1.0415 C.ar      1 <0>         0.1497
      4 C3          1.2023    0.1385    2.0514 C.ar      1 <0>        -0.2027
      5 C4          1.8353   -0.4882    3.1070 C.ar      1 <0>        -0.0455
      6 C5          1.8947   -1.8689    3.1579 C.ar      1 <0>        -0.1497
      7 C6          1.3214   -2.6252    2.1527 C.ar      1 <0>        -0.0561
      8 C7          0.6822   -2.0032    1.0975 C.ar      1 <0>        -0.1926
      9 C8          0.0521   -2.8284    0.0053 C.3       1 <0>         0.0549
     10 N1          0.9527   -2.8756   -1.1542 N.4       1 <0>        -0.3828
     11 C9          2.1861   -3.5809   -0.7856 C.3       1 <0>        -0.0037
     12 C10         3.1608   -3.5623   -1.9650 C.3       1 <0>        -0.1553
     13 C11         2.5132   -4.2570   -3.1663 C.3       1 <0>         0.1376
     14 C12         1.1906   -3.5588   -3.4954 C.3       1 <0>        -0.1619
     15 C13         0.2889   -3.5775   -2.2593 C.3       1 <0>        -0.0010
     16 N2          3.4107   -4.1759   -4.3214 N.am      1 <0>        -0.7291
     17 C14         3.3289   -5.0947   -5.3042 C.2       1 <0>         0.5719
     18 O2          2.5105   -5.9905   -5.2320 O.2       1 <0>        -0.5260
     19 C15         4.2345   -5.0128   -6.4699 C.ar      1 <0>        -0.1181
     20 C16         5.1792   -3.9888   -6.5530 C.ar      1 <0>        -0.1113
     21 C17         6.0217   -3.9184   -7.6432 C.ar      1 <0>        -0.0318
     22 C18         5.9312   -4.8598   -8.6531 C.ar      1 <0>        -0.5791
     23 C19         4.9966   -5.8773   -8.5771 C.ar      1 <0>        -0.0294
     24 C20         4.1524   -5.9627   -7.4893 C.ar      1 <0>        -0.0787
     25 S1          7.0106   -4.7623  -10.0424 S.o2      1 <0>         2.5917
     26 O3          6.3613   -5.4397  -11.1095 O.2       1 <0>        -1.0215
     27 O4          7.4247   -3.4066  -10.1405 O.2       1 <0>        -1.0237
     28 N3          8.3628   -5.6448   -9.6747 N.2       1 <0>        -1.0851
     29 C21         9.4041   -5.7475  -10.6021 C.ar      1 <0>         0.2688
     30 C22         9.3080   -5.1051  -11.8296 C.ar      1 <0>        -0.2401
     31 C23        10.3380   -5.2075  -12.7441 C.ar      1 <0>        -0.0933
     32 C24        11.4659   -5.9500  -12.4377 C.ar      1 <0>        -0.0165
     33 C25        11.5639   -6.5913  -11.2144 C.ar      1 <0>        -0.1067
     34 C26        10.5386   -6.4873  -10.2949 C.ar      1 <0>        -0.1563
     35 F1         12.4721   -6.0491  -13.3338 F         1 <0>        -0.1624
     36 H1          1.0053    1.8021    0.0021 H         1 <0>         0.0646
     37 H2         -0.5445    1.7859   -0.8732 H         1 <0>         0.1109
     38 H3         -0.5275    1.7763    0.9067 H         1 <0>         0.0654
     39 H4          1.1565    1.2168    2.0119 H         1 <0>         0.1402
     40 H5          2.2845    0.1005    3.8932 H         1 <0>         0.1380
     41 H6          2.3900   -2.3570    3.9842 H         1 <0>         0.1381
     42 H7          1.3695   -3.7034    2.1946 H         1 <0>         0.1398
     43 H8         -0.1239   -3.8404    0.3701 H         1 <0>         0.1355
     44 H9         -0.8960   -2.3784   -0.2891 H         1 <0>         0.1376
     45 H10         2.6440   -3.0872    0.0715 H         1 <0>         0.1336
     46 H11         1.9502   -4.6129   -0.5260 H         1 <0>         0.1326
     47 H12         3.3976   -2.5306   -2.2253 H         1 <0>         0.0932
     48 H13         4.0751   -4.0880   -1.6899 H         1 <0>         0.1206
     49 H14         2.3230   -5.3025   -2.9238 H         1 <0>         0.1070
     50 H15         1.3865   -2.5271   -3.7874 H         1 <0>         0.0906
     51 H16         0.6967   -4.0820   -4.3142 H         1 <0>         0.1190
     52 H17         0.0934   -4.6096   -1.9683 H         1 <0>         0.1324
     53 H18        -0.6538   -3.0814   -2.4902 H         1 <0>         0.1339
     54 H19         4.0637   -3.4610   -4.3790 H         1 <0>         0.4074
     55 H20         5.2504   -3.2529   -5.7657 H         1 <0>         0.1260
     56 H21         6.7531   -3.1265   -7.7087 H         1 <0>         0.1461
     57 H22         4.9309   -6.6088   -9.3689 H         1 <0>         0.1487
     58 H23         3.4266   -6.7601   -7.4288 H         1 <0>         0.1415
     59 H24         8.4282   -4.5262  -12.0692 H         1 <0>         0.1056
     60 H25        10.2635   -4.7084  -13.6989 H         1 <0>         0.1166
     61 H26        12.4444   -7.1701  -10.9777 H         1 <0>         0.1195
     62 H27        10.6174   -6.9839   -9.3391 H         1 <0>         0.1226
     63 H28         1.1786   -1.9352   -1.4419 H         1 <0>         0.4232
@<TRIPOS>BOND
     1    1    2 1
     2    1   36 1
     3    1   37 1
     4    1   38 1
     5    2    3 1
     6    3    8 ar
     7    3    4 ar
     8    4    5 ar
     9    4   39 1
    10    5    6 ar
    11    5   40 1
    12    6    7 ar
    13    6   41 1
    14    7    8 ar
    15    7   42 1
    16    8    9 1
    17    9   10 1
    18    9   43 1
    19    9   44 1
    20   10   15 1
    21   10   11 1
    22   10   63 1
    23   11   12 1
    24   11   45 1
    25   11   46 1
    26   12   13 1
    27   12   47 1
    28   12   48 1
    29   13   14 1
    30   13   16 1
    31   13   49 1
    32   14   15 1
    33   14   50 1
    34   14   51 1
    35   15   52 1
    36   15   53 1
    37   16   17 am
    38   16   54 1
    39   17   18 2
    40   17   19 1
    41   19   24 ar
    42   19   20 ar
    43   20   21 ar
    44   20   55 1
    45   21   22 ar
    46   21   56 1
    47   22   23 ar
    48   22   25 1
    49   23   24 ar
    50   23   57 1
    51   24   58 1
    52   25   26 2
    53   25   27 2
    54   25   28 1
    55   28   29 1
    56   29   34 ar
    57   29   30 ar
    58   30   31 ar
    59   30   59 1
    60   31   32 ar
    61   31   60 1
    62   32   33 ar
    63   32   35 1
    64   33   34 ar
    65   33   61 1
    66   34   62 1
@<TRIPOS>MOLECULE
ZINC12881564
   54    57     0     0     0
SMALL
USER_CHARGES
2-[(2R)-2-(3,4-dihydro-2H-1,5-benzodioxepin-7-yl)pyrrolidin-1-yl]-N-(4-iodo-2-methyl-phenyl)acetamide
@<TRIPOS>ATOM
      1 C1         -4.9636    5.5428   -5.3203 C.3       1 <0>        -0.1214
      2 C2         -4.4969    4.2011   -5.8233 C.ar      1 <0>        -0.0964
      3 C3         -4.9101    3.7443   -7.0596 C.ar      1 <0>        -0.0641
      4 C4         -4.4867    2.5105   -7.5194 C.ar      1 <0>        -0.1013
      5 C5         -3.6438    1.7328   -6.7454 C.ar      1 <0>        -0.0698
      6 C6         -3.2229    2.1867   -5.5111 C.ar      1 <0>        -0.1165
      7 C7         -3.6464    3.4253   -5.0468 C.ar      1 <0>         0.1411
      8 N1         -3.2214    3.8880   -3.7963 N.am      1 <0>        -0.6423
      9 C8         -2.8462    3.0103   -2.8449 C.2       1 <0>         0.5031
     10 O1         -2.9711    1.8190   -3.0356 O.2       1 <0>        -0.5059
     11 C9         -2.2715    3.5089   -1.5441 C.3       1 <0>        -0.0234
     12 C10        -0.7900    1.6112   -1.2181 C.3       1 <0>        -0.0115
     13 C11         0.0023    1.0795   -0.0093 C.3       1 <0>        -0.1446
     14 C12        -0.7528    1.6040    1.2335 C.3       1 <0>        -0.1355
     15 C13        -1.5390    2.8177    0.6726 C.3       1 <0>         0.0832
     16 H1         -0.8978    3.6968    0.6087 H         1 <0>         0.1540
     17 C14        -2.7504    3.1057    1.5216 C.ar      1 <0>        -0.1340
     18 C15        -3.8526    2.2739    1.4543 C.ar      1 <0>        -0.1126
     19 C16        -4.9681    2.5317    2.2308 C.ar      1 <0>        -0.1015
     20 C17        -4.9769    3.6278    3.0770 C.ar      1 <0>         0.0977
     21 C18        -3.8706    4.4624    3.1446 C.ar      1 <0>         0.0813
     22 C19        -2.7536    4.1983    2.3701 C.ar      1 <0>        -0.0861
     23 O2         -3.8891    5.5403    3.9814 O.3       1 <0>        -0.3160
     24 C20        -3.8834    5.2458    5.3797 C.3       1 <0>         0.0603
     25 C21        -5.2938    4.9745    5.8792 C.3       1 <0>        -0.1931
     26 C22        -5.8984    3.7259    5.2565 C.3       1 <0>         0.0605
     27 O3         -6.0709    3.8944    3.8479 O.3       1 <0>        -0.3170
     28 I1         -5.1234    1.8175   -9.3911 I         1 <0>        -0.0238
     29 H2         -4.2638    6.3146   -5.6409 H         1 <0>         0.0808
     30 H3         -5.9526    5.7585   -5.7247 H         1 <0>         0.0825
     31 H4         -5.0120    5.5259   -4.2315 H         1 <0>         0.0638
     32 H5         -5.5680    4.3493   -7.6659 H         1 <0>         0.1399
     33 H6         -3.3151    0.7696   -7.1068 H         1 <0>         0.1375
     34 H7         -2.5647    1.5794   -4.9075 H         1 <0>         0.1505
     35 H8         -3.1969    4.8405   -3.6143 H         1 <0>         0.4216
     36 H9         -3.0027    4.1435   -1.0433 H         1 <0>         0.1627
     37 H10        -1.3672    4.0840   -1.7432 H         1 <0>         0.1639
     38 H11        -0.1597    2.2713   -1.8139 H         1 <0>         0.1302
     39 H12        -1.1377    0.7785   -1.8295 H         1 <0>         0.1439
     40 H13         0.0127   -0.0104   -0.0136 H         1 <0>         0.1084
     41 H14         1.0209    1.4671   -0.0246 H         1 <0>         0.1066
     42 H15        -1.4359    0.8466    1.6179 H         1 <0>         0.1018
     43 H16        -0.0517    1.9203    2.0059 H         1 <0>         0.1216
     44 H17        -3.8427    1.4197    0.7935 H         1 <0>         0.1287
     45 H18        -5.8283    1.8808    2.1776 H         1 <0>         0.1491
     46 H19        -1.8901    4.8446    2.4254 H         1 <0>         0.1474
     47 H20        -3.2642    4.3668    5.5588 H         1 <0>         0.0611
     48 H21        -3.4672    6.0939    5.9234 H         1 <0>         0.1145
     49 H22        -5.2675    4.8518    6.9619 H         1 <0>         0.1010
     50 H23        -5.9249    5.8295    5.6364 H         1 <0>         0.0902
     51 H24        -5.2375    2.8784    5.4381 H         1 <0>         0.0617
     52 H25        -6.8676    3.5296    5.7150 H         1 <0>         0.1152
     53 N2         -1.9272    2.3495   -0.6671 N.4       1 <0>        -0.3811
     54 H26        -2.7417    1.7285   -0.5950 H         1 <0>         0.4322
@<TRIPOS>BOND
     1    1    2 1
     2    1   29 1
     3    1   30 1
     4    1   31 1
     5    2    7 ar
     6    2    3 ar
     7    3    4 ar
     8    3   32 1
     9    4    5 ar
    10    4   28 1
    11    5    6 ar
    12    5   33 1
    13    6    7 ar
    14    6   34 1
    15    7    8 1
    16    8    9 am
    17    8   35 1
    18    9   10 2
    19    9   11 1
    20   11   36 1
    21   11   37 1
    22   11   53 1
    23   12   13 1
    24   12   38 1
    25   12   39 1
    26   12   53 1
    27   13   14 1
    28   13   40 1
    29   13   41 1
    30   14   15 1
    31   14   42 1
    32   14   43 1
    33   15   16 1
    34   15   17 1
    35   15   53 1
    36   17   22 ar
    37   17   18 ar
    38   18   19 ar
    39   18   44 1
    40   19   20 ar
    41   19   45 1
    42   20   27 1
    43   20   21 ar
    44   21   22 ar
    45   21   23 1
    46   22   46 1
    47   23   24 1
    48   24   25 1
    49   24   47 1
    50   24   48 1
    51   25   26 1
    52   25   49 1
    53   25   50 1
    54   26   27 1
    55   26   51 1
    56   26   52 1
    57   53   54 1
@<TRIPOS>MOLECULE
ZINC35545040
   65    69     0     0     0
SMALL
USER_CHARGES

@<TRIPOS>ATOM
      1 C1          0.0620    1.2153   -0.6682 C.3       1 <0>         0.0250
      2 O1          0.0006   -0.0606   -0.0277 O.3       1 <0>        -0.3038
      3 C2         -1.2076   -0.6862   -0.0118 C.ar      1 <0>         0.0962
      4 C3         -2.3065   -0.0861   -0.6052 C.ar      1 <0>        -0.1574
      5 C4         -3.5340   -0.7204   -0.5903 C.ar      1 <0>        -0.1091
      6 C5         -3.6689   -1.9606    0.0193 C.ar      1 <0>         0.1345
      7 C6         -2.5702   -2.5644    0.6152 C.ar      1 <0>        -0.1952
      8 C7         -1.3385   -1.9314    0.5954 C.ar      1 <0>         0.1198
      9 O2         -0.2594   -2.5236    1.1736 O.3       1 <0>        -0.3006
     10 C8         -0.4671   -3.8016    1.7782 C.3       1 <0>         0.0250
     11 N1         -4.9143   -2.6023    0.0335 N.am      1 <0>        -0.6604
     12 C9         -6.0449   -1.8770    0.1435 C.2       1 <0>         0.5196
     13 O3         -5.9899   -0.6653    0.1501 O.2       1 <0>        -0.5098
     14 C10        -7.3774   -2.5714    0.2583 C.3       1 <0>        -0.1231
     15 H1         -7.3810   -3.2029    1.1468 H         1 <0>         0.1256
     16 C11        -7.6067   -3.4367   -0.9798 C.3       1 <0>        -0.0634
     17 C12        -7.6838   -2.5402   -2.1886 C.ar      1 <0>        -0.1656
     18 C13        -7.2890   -3.0231   -3.4227 C.ar      1 <0>        -0.0156
     19 C14        -7.3459   -2.2050   -4.5357 C.ar      1 <0>        -0.2248
     20 C15        -7.7976   -0.9030   -4.4172 C.ar      1 <0>        -0.0201
     21 C16        -8.1959   -0.4186   -3.1877 C.ar      1 <0>        -0.1916
     22 C17        -8.1445   -1.2421   -2.0664 C.ar      1 <0>         0.2481
     23 N2         -8.5820   -0.7268   -0.8338 N.pl3     1 <0>        -0.6045
     24 C18        -8.4887   -1.5234    0.3748 C.3       1 <0>         0.1846
     25 H2         -9.4351   -2.0464    0.5122 H         1 <0>         0.0809
     26 C19        -8.2357   -0.6944    1.6235 C.3       1 <0>         0.0792
     27 N3         -8.8446    0.6197    1.5647 N.pl3     1 <0>        -0.5645
     28 C20        -8.8377    1.4318    0.3594 C.3       1 <0>         0.0992
     29 C21        -9.1750    0.6091   -0.8598 C.3       1 <0>         0.1039
     30 C22        -9.4596    1.1226    2.7054 C.ar      1 <0>         0.4370
     31 C23       -10.1545    2.3262    2.6404 C.ar      1 <0>        -0.2004
     32 C24       -10.7616    2.8149    3.7829 C.ar      1 <0>         0.0391
     33 C25       -10.6531    2.0808    4.9569 C.ar      1 <0>        -0.1702
     34 C26        -9.9481    0.8942    4.9495 C.ar      1 <0>         0.1463
     35 N4         -9.3834    0.4493    3.8428 N.ar      1 <0>        -0.5076
     36 C27        -6.9158   -2.7327   -5.8801 C.3       1 <0>         0.5106
     37 F1         -8.0155   -3.3018   -6.5313 F         1 <0>        -0.1764
     38 F2         -6.4084   -1.6826   -6.6527 F         1 <0>        -0.1768
     39 F3         -5.9241   -3.7038   -5.7044 F         1 <0>        -0.1779
     40 H3          1.0793    1.6025   -0.6098 H         1 <0>         0.1047
     41 H4         -0.2277    1.1113   -1.7138 H         1 <0>         0.0569
     42 H5         -0.6186    1.9054   -0.1695 H         1 <0>         0.0546
     43 H6         -2.2036    0.8787   -1.0796 H         1 <0>         0.1396
     44 H7         -4.3895   -0.2509   -1.0531 H         1 <0>         0.1409
     45 H8         -2.6748   -3.5287    1.0902 H         1 <0>         0.1390
     46 H9         -1.2114   -3.7126    2.5695 H         1 <0>         0.0537
     47 H10        -0.8197   -4.5067    1.0254 H         1 <0>         0.0564
     48 H11         0.4714   -4.1605    2.2008 H         1 <0>         0.1053
     49 H12        -4.9627   -3.5686   -0.0358 H         1 <0>         0.4116
     50 H13        -6.7787   -4.1361   -1.0955 H         1 <0>         0.0929
     51 H14        -8.5412   -3.9875   -0.8730 H         1 <0>         0.0991
     52 H15        -6.9358   -4.0393   -3.5171 H         1 <0>         0.1392
     53 H16        -7.8383   -0.2648   -5.2875 H         1 <0>         0.1400
     54 H17        -8.5478    0.5983   -3.0957 H         1 <0>         0.1400
     55 H18        -8.6354   -1.2280    2.4858 H         1 <0>         0.0794
     56 H19        -7.1600   -0.5769    1.7545 H         1 <0>         0.1152
     57 H20        -9.5716    2.2309    0.4638 H         1 <0>         0.1119
     58 H21        -7.8488    1.8723    0.2321 H         1 <0>         0.0998
     59 H22        -8.8160    1.1350   -1.7445 H         1 <0>         0.1122
     60 H23       -10.2583    0.5106   -0.9288 H         1 <0>         0.0710
     61 H24       -10.2187    2.8716    1.7104 H         1 <0>         0.1806
     62 H25       -11.3075    3.7465    3.7627 H         1 <0>         0.1751
     63 H26       -11.1153    2.4351    5.8664 H         1 <0>         0.1811
     64 H27        -9.8609    0.3204    5.8603 H         1 <0>         0.2063
     65 H28        -8.8970   -0.3897    3.8642 H         1 <0>         0.4375
@<TRIPOS>BOND
     1    1    2 1
     2    1   40 1
     3    1   41 1
     4    1   42 1
     5    2    3 1
     6    3    8 ar
     7    3    4 ar
     8    4    5 ar
     9    4   43 1
    10    5    6 ar
    11    5   44 1
    12    6    7 ar
    13    6   11 1
    14    7    8 ar
    15    7   45 1
    16    8    9 1
    17    9   10 1
    18   10   46 1
    19   10   47 1
    20   10   48 1
    21   11   12 am
    22   11   49 1
    23   12   13 2
    24   12   14 1
    25   14   15 1
    26   14   24 1
    27   14   16 1
    28   16   17 1
    29   16   50 1
    30   16   51 1
    31   17   22 ar
    32   17   18 ar
    33   18   19 ar
    34   18   52 1
    35   19   20 ar
    36   19   36 1
    37   20   21 ar
    38   20   53 1
    39   21   22 ar
    40   21   54 1
    41   22   23 1
    42   23   29 1
    43   23   24 1
    44   24   25 1
    45   24   26 1
    46   26   27 1
    47   26   55 1
    48   26   56 1
    49   27   28 1
    50   27   30 1
    51   28   29 1
    52   28   57 1
    53   28   58 1
    54   29   59 1
    55   29   60 1
    56   30   35 ar
    57   30   31 ar
    58   31   32 ar
    59   31   61 1
    60   32   33 ar
    61   32   62 1
    62   33   34 ar
    63   33   63 1
    64   34   35 ar
    65   34   64 1
    66   35   65 1
    67   36   37 1
    68   36   38 1
    69   36   39 1
@<TRIPOS>MOLECULE
ZINC39529487
   53    55     0     0     0
SMALL
USER_CHARGES

@<TRIPOS>ATOM
      1 C1         -0.0187    1.5258    0.0104 C.3       1 <0>        -0.1564
      2 C2          0.0021   -0.0041    0.0020 C.3       1 <0>        -0.0890
      3 C3          0.7421   -0.5109    1.2415 C.3       1 <0>        -0.1523
      4 C4         -1.4333   -0.5336    0.0129 C.3       1 <0>        -0.0752
      5 C5         -2.1247   -0.1373   -1.2662 C.ar      1 <0>        -0.0662
      6 C6         -2.8929    1.0098   -1.3100 C.ar      1 <0>        -0.0729
      7 C7         -3.5278    1.3742   -2.4835 C.ar      1 <0>        -0.0876
      8 C8         -3.3960    0.5913   -3.6166 C.ar      1 <0>        -0.0820
      9 C9         -2.6294   -0.5565   -3.5792 C.ar      1 <0>        -0.1121
     10 C10        -1.9855   -0.9219   -2.4036 C.ar      1 <0>         0.1554
     11 N1         -1.2045   -2.0796   -2.3641 N.pl3     1 <0>        -0.6590
     12 C11        -1.7958   -3.3791   -2.0093 C.3       1 <0>         0.1148
     13 C12        -1.3931   -4.4033   -3.0755 C.3       1 <0>        -0.0241
     14 N2          0.0690   -4.4192   -3.2101 N.4       1 <0>        -0.4777
     15 C13         0.5392   -3.1216   -3.7112 C.3       1 <0>        -0.5558
     16 H1          0.0308   -2.8873   -4.6465 H         1 <0>         0.1987
     17 C14         0.2311   -2.0349   -2.6820 C.3       1 <0>         0.1352
     18 S1          2.3289   -3.1963   -3.9977 S.o2      1 <0>         2.5837
     19 O1          2.7702   -2.0127   -4.6484 O.2       1 <0>        -0.8807
     20 O2          2.9912   -3.6736   -2.8347 O.2       1 <0>        -0.8766
     21 O3          2.5139   -4.2992   -5.0302 O.3       1 <0>        -0.6454
     22 C15         2.1562   -3.9412   -6.2915 C.ar      1 <0>         0.0308
     23 C16         0.8531   -4.1360   -6.7258 C.ar      1 <0>        -0.1387
     24 C17         0.4918   -3.7709   -8.0082 C.ar      1 <0>        -0.0941
     25 C18         1.4278   -3.2122   -8.8588 C.ar      1 <0>        -0.0800
     26 C19         2.7272   -3.0174   -8.4285 C.ar      1 <0>        -0.0894
     27 C20         3.0920   -3.3752   -7.1450 C.ar      1 <0>        -0.0738
     28 I1         -4.6919    3.1149   -2.5452 I         1 <0>        -0.0218
     29 H2          1.0039    1.9031    0.0027 H         1 <0>         0.0596
     30 H3         -0.5459    1.8868   -0.8726 H         1 <0>         0.0563
     31 H4         -0.5289    1.8773    0.9072 H         1 <0>         0.0601
     32 H5          0.5123   -0.3556   -0.8948 H         1 <0>         0.0624
     33 H6          0.2319   -0.1594    2.1383 H         1 <0>         0.0612
     34 H7          0.7568   -1.6008    1.2356 H         1 <0>         0.0524
     35 H8          1.7647   -0.1336    1.2338 H         1 <0>         0.0613
     36 H9         -1.4190   -1.6203    0.0965 H         1 <0>         0.0745
     37 H10        -1.9701   -0.1109    0.8621 H         1 <0>         0.0789
     38 H11        -2.9982    1.6226   -0.4269 H         1 <0>         0.1365
     39 H12        -3.8935    0.8781   -4.5313 H         1 <0>         0.1354
     40 H13        -2.5270   -1.1672   -4.4640 H         1 <0>         0.1282
     41 H14        -1.4228   -3.6978   -1.0359 H         1 <0>         0.0883
     42 H15        -2.8818   -3.2910   -1.9777 H         1 <0>         0.1256
     43 H16        -1.7416   -5.3926   -2.7791 H         1 <0>         0.1523
     44 H17        -1.8430   -4.1302   -4.0300 H         1 <0>         0.1376
     45 H18         0.4864   -4.6020   -2.3098 H         1 <0>         0.4383
     46 H19         0.4845   -1.0585   -3.0949 H         1 <0>         0.1330
     47 H20         0.8123   -2.2155   -1.7777 H         1 <0>         0.0996
     48 H21         0.1218   -4.5731   -6.0620 H         1 <0>         0.1245
     49 H22        -0.5225   -3.9223   -8.3468 H         1 <0>         0.1475
     50 H23         1.1434   -2.9277   -9.8611 H         1 <0>         0.1473
     51 H24         3.4566   -2.5811   -9.0949 H         1 <0>         0.1517
     52 H25         4.1061   -3.2188   -6.8079 H         1 <0>         0.1495
     53 H26         0.3381   -5.1456   -3.8566 H         1 <0>         0.4304
@<TRIPOS>BOND
     1    1    2 1
     2    1   29 1
     3    1   30 1
     4    1   31 1
     5    2    3 1
     6    2    4 1
     7    2   32 1
     8    3   33 1
     9    3   34 1
    10    3   35 1
    11    4    5 1
    12    4   36 1
    13    4   37 1
    14    5   10 ar
    15    5    6 ar
    16    6    7 ar
    17    6   38 1
    18    7    8 ar
    19    7   28 1
    20    8    9 ar
    21    8   39 1
    22    9   10 ar
    23    9   40 1
    24   10   11 1
    25   11   17 1
    26   11   12 1
    27   12   13 1
    28   12   41 1
    29   12   42 1
    30   13   14 1
    31   13   43 1
    32   13   44 1
    33   14   15 1
    34   14   45 1
    35   14   53 1
    36   15   16 1
    37   15   17 1
    38   15   18 1
    39   17   46 1
    40   17   47 1
    41   18   19 2
    42   18   20 2
    43   18   21 1
    44   21   22 1
    45   22   27 ar
    46   22   23 ar
    47   23   24 ar
    48   23   48 1
    49   24   25 ar
    50   24   49 1
    51   25   26 ar
    52   25   50 1
    53   26   27 ar
    54   26   51 1
    55   27   52 1
@<TRIPOS>MOLECULE
ZINC20211200
   47    51     0     0     0
SMALL
USER_CHARGES

@<TRIPOS>ATOM
      1 C1         -3.0779   -1.3959    2.8448 C.ar      1 <0>        -0.1099
      2 C2         -2.1506   -0.8346    1.9869 C.ar      1 <0>        -0.1182
      3 C3         -0.9842   -1.5142    1.6894 C.ar      1 <0>        -0.0996
      4 C4         -0.7449   -2.7549    2.2500 C.ar      1 <0>        -0.0889
      5 C5         -1.6718   -3.3158    3.1086 C.ar      1 <0>        -0.1009
      6 C6         -2.8388   -2.6368    3.4051 C.ar      1 <0>        -0.1175
      7 C7          0.5263   -3.4962    1.9249 C.3       1 <0>         0.0147
      8 C8          1.5646   -3.1978    2.9755 C.2       1 <0>         0.1266
      9 N1          1.5045   -2.3576    3.9687 N.2       1 <0>        -0.2417
     10 N2          2.5557   -2.2138    4.8486 N.pl3     1 <0>        -0.4303
     11 C9          2.5606   -1.4027    6.0036 C.2       1 <0>         0.4556
     12 N3          1.4707   -1.0187    6.6165 N.2       1 <0>        -0.6117
     13 C10         3.9276   -1.0278    6.4558 C.2       1 <0>        -0.1953
     14 C11         4.1872    0.1917    7.0590 C.2       1 <0>         0.0986
     15 C12         3.1791    1.1712    7.1283 C.2       1 <0>        -0.0028
     16 C13         2.5046    1.5776    8.2718 C.2       1 <0>        -0.1195
     17 C14         1.5961    2.5626    7.8833 C.2       1 <0>        -0.1857
     18 C15         1.7202    2.7440    6.5439 C.2       1 <0>         0.0098
     19 N4          2.6822    1.9098    6.0724 N.pl3     1 <0>        -0.3831
     20 C16         3.0982    1.8120    4.7383 C.ar      1 <0>         0.1326
     21 C17         4.4388    1.9734    4.4141 C.ar      1 <0>        -0.1113
     22 C18         4.8463    1.8760    3.0981 C.ar      1 <0>        -0.0729
     23 C19         3.9201    1.6179    2.1031 C.ar      1 <0>        -0.0881
     24 C20         2.5837    1.4567    2.4234 C.ar      1 <0>        -0.0741
     25 C21         2.1716    1.5479    3.7383 C.ar      1 <0>        -0.1039
     26 Br1         4.4816    1.4859    0.3022 Br        1 <0>        -0.0337
     27 C22         4.9961   -2.0277    6.2273 C.2       1 <0>         0.5489
     28 O1          5.9985   -2.0459    6.9240 O.2       1 <0>        -0.4403
     29 N5          4.8299   -2.9176    5.2281 N.2       1 <0>        -0.5406
     30 C23         3.6897   -2.9525    4.5861 C.2       1 <0>         0.3954
     31 S1          3.1903   -3.9124    3.1812 S.3       1 <0>         0.0941
     32 H1         -3.9871   -0.8630    3.0808 H         1 <0>         0.1231
     33 H2         -2.3375    0.1347    1.5489 H         1 <0>         0.1236
     34 H3         -0.2600   -1.0760    1.0186 H         1 <0>         0.1222
     35 H4         -1.4850   -4.2852    3.5464 H         1 <0>         0.1220
     36 H5         -3.5632   -3.0752    4.0756 H         1 <0>         0.1240
     37 H6          0.3270   -4.5677    1.9049 H         1 <0>         0.1224
     38 H7          0.8938   -3.1768    0.9497 H         1 <0>         0.1219
     39 H8          0.6074   -1.3507    6.3243 H         1 <0>         0.3578
     40 H9          5.1633    0.3909    7.4762 H         1 <0>         0.1610
     41 H10         2.6547    1.2019    9.2731 H         1 <0>         0.1455
     42 H11         0.9134    3.0885    8.5343 H         1 <0>         0.1439
     43 H12         1.1493    3.4423    5.9499 H         1 <0>         0.1639
     44 H13         5.1621    2.1751    5.1903 H         1 <0>         0.1401
     45 H14         5.8887    2.0017    2.8454 H         1 <0>         0.1449
     46 H15         1.8627    1.2557    1.6447 H         1 <0>         0.1411
     47 H16         1.1290    1.4176    3.9883 H         1 <0>         0.1365
@<TRIPOS>BOND
     1    1    6 ar
     2    1    2 ar
     3    1   32 1
     4    2    3 ar
     5    2   33 1
     6    3    4 ar
     7    3   34 1
     8    4    5 ar
     9    4    7 1
    10    5    6 ar
    11    5   35 1
    12    6   36 1
    13    7    8 1
    14    7   37 1
    15    7   38 1
    16    8   31 1
    17    8    9 2
    18    9   10 1
    19   10   30 1
    20   10   11 1
    21   11   12 2
    22   11   13 1
    23   12   39 1
    24   13   14 2
    25   13   27 1
    26   14   15 1
    27   14   40 1
    28   15   19 1
    29   15   16 2
    30   16   17 1
    31   16   41 1
    32   17   18 2
    33   17   42 1
    34   18   19 1
    35   18   43 1
    36   19   20 1
    37   20   25 ar
    38   20   21 ar
    39   21   22 ar
    40   21   44 1
    41   22   23 ar
    42   22   45 1
    43   23   24 ar
    44   23   26 1
    45   24   25 ar
    46   24   46 1
    47   25   47 1
    48   27   28 2
    49   27   29 1
    50   29   30 2
    51   30   31 1
@<TRIPOS>MOLECULE
ZINC65301129
   69    73     0     0     0
SMALL
USER_CHARGES

@<TRIPOS>ATOM
      1 C1          1.2031    1.7235   -1.1271 C.3       1 <0>        -0.1170
      2 C2          1.0531    0.2261   -1.0474 C.ar      1 <0>        -0.0898
      3 C3          1.6675   -0.5800   -1.9885 C.ar      1 <0>        -0.1096
      4 C4          1.5321   -1.9524   -1.9182 C.ar      1 <0>        -0.1108
      5 C5          0.7781   -2.5232   -0.9009 C.ar      1 <0>         0.1294
      6 C6          0.1629   -1.7112    0.0426 C.ar      1 <0>        -0.1054
      7 C7          0.3063   -0.3392   -0.0304 C.ar      1 <0>        -0.1041
      8 C8         -0.6560   -2.3262    1.1481 C.3       1 <0>        -0.1157
      9 N1          0.6385   -3.9135   -0.8272 N.am      1 <0>        -0.6676
     10 C9          0.5875   -4.6465   -1.9570 C.2       1 <0>         0.5180
     11 O1          0.7385   -4.1109   -3.0347 O.2       1 <0>        -0.5154
     12 C10         0.3430   -6.1316   -1.8814 C.3       1 <0>        -0.1021
     13 C11         1.4548   -6.7902   -1.0614 C.3       1 <0>        -0.1429
     14 C12         1.1844   -8.2945   -0.9575 C.3       1 <0>         0.1449
     15 N2          1.0286   -8.8417   -2.3121 N.pl3     1 <0>        -0.6872
     16 C13         0.0493   -8.2227   -3.2158 C.3       1 <0>         0.1362
     17 C14         0.3324   -6.7192   -3.2944 C.3       1 <0>        -0.1157
     18 C15         1.7877   -9.9160   -2.7279 C.ar      1 <0>         0.4393
     19 C16         3.0442   -9.7212   -3.3192 C.ar      1 <0>        -0.1829
     20 C17         3.7997  -10.8248   -3.7347 C.ar      1 <0>         0.2291
     21 N3          3.3397  -12.0475   -3.5753 N.ar      1 <0>        -0.4179
     22 C18         2.1658  -12.2787   -3.0256 C.ar      1 <0>         0.0336
     23 C19         1.3180  -11.2456   -2.5619 C.ar      1 <0>        -0.1618
     24 C20         0.1210  -11.7287   -2.0067 C.2       1 <0>         0.1759
     25 N4         -0.1168  -13.0030   -1.9504 N.2       1 <0>        -0.3945
     26 S1          1.2214  -13.7330   -2.6473 S.3       1 <0>         0.3792
     27 C21        -0.8976  -10.7562   -1.4704 C.3       1 <0>        -0.1220
     28 C22         3.5683   -8.3582   -3.5035 C.2       1 <0>         0.5680
     29 O2          3.7225   -7.6306   -2.5411 O.2       1 <0>        -0.4867
     30 N5          3.8774   -7.9164   -4.7387 N.am      1 <0>        -0.5951
     31 C23         3.5878   -8.7380   -5.9219 C.3       1 <0>         0.0983
     32 C24         2.7668   -7.9052   -6.9115 C.3       1 <0>        -0.1348
     33 C25         3.5112   -6.6035   -7.2171 C.3       1 <0>        -0.1233
     34 C26         3.6790   -5.7952   -5.9285 C.3       1 <0>        -0.1376
     35 C27         4.5048   -6.6014   -4.9282 C.3       1 <0>         0.1127
     36 H1          2.0802    2.0316   -0.5581 H         1 <0>         0.0721
     37 H2          1.3224    2.0218   -2.1687 H         1 <0>         0.0676
     38 H3          0.3150    2.2002   -0.7121 H         1 <0>         0.0675
     39 H4          2.2536   -0.1355   -2.7793 H         1 <0>         0.1250
     40 H5          2.0115   -2.5813   -2.6538 H         1 <0>         0.1374
     41 H6         -0.1686    0.2927    0.7055 H         1 <0>         0.1270
     42 H7         -0.0150   -2.5270    2.0065 H         1 <0>         0.0719
     43 H8         -1.4486   -1.6371    1.4397 H         1 <0>         0.0734
     44 H9         -1.0968   -3.2595    0.7976 H         1 <0>         0.0612
     45 H10         0.5784   -4.3497    0.0371 H         1 <0>         0.4086
     46 H11        -0.6189   -6.3173   -1.4036 H         1 <0>         0.1022
     47 H12         2.4144   -6.6261   -1.5517 H         1 <0>         0.1101
     48 H13         1.4769   -6.3547   -0.0625 H         1 <0>         0.0812
     49 H14         2.0224   -8.7829   -0.4603 H         1 <0>         0.0841
     50 H15         0.2704   -8.4630   -0.3880 H         1 <0>         0.0795
     51 H16         0.1384   -8.6637   -4.2086 H         1 <0>         0.0787
     52 H17        -0.9573   -8.3853   -2.8304 H         1 <0>         0.0815
     53 H18        -0.4443   -6.2331   -3.8848 H         1 <0>         0.0899
     54 H19         1.3026   -6.5558   -3.7637 H         1 <0>         0.0786
     55 H20         4.7670  -10.6713   -4.1898 H         1 <0>         0.2262
     56 H21        -1.6294  -10.5317   -2.2464 H         1 <0>         0.1031
     57 H22        -1.4030  -11.1965   -0.6109 H         1 <0>         0.0989
     58 H23        -0.3972   -9.8369   -1.1661 H         1 <0>         0.1093
     59 H24         4.5225   -9.0458   -6.3906 H         1 <0>         0.0845
     60 H25         3.0183   -9.6186   -5.6248 H         1 <0>         0.0675
     61 H26         2.6271   -8.4695   -7.8336 H         1 <0>         0.0822
     62 H27         1.7952   -7.6748   -6.4747 H         1 <0>         0.0697
     63 H28         4.4927   -6.8349   -7.6310 H         1 <0>         0.0686
     64 H29         2.9409   -6.0201   -7.9400 H         1 <0>         0.0741
     65 H30         4.1885   -4.8576   -6.1508 H         1 <0>         0.0841
     66 H31         2.6987   -5.5846   -5.5009 H         1 <0>         0.0734
     67 H32         4.5400   -6.0727   -3.9756 H         1 <0>         0.0990
     68 H33         5.5159   -6.7311   -5.3141 H         1 <0>         0.0787
     69 H34         3.8793  -12.7976   -3.8705 H         1 <0>         0.4587
@<TRIPOS>BOND
     1    1    2 1
     2    1   36 1
     3    1   37 1
     4    1   38 1
     5    2    7 ar
     6    2    3 ar
     7    3    4 ar
     8    3   39 1
     9    4    5 ar
    10    4   40 1
    11    5    6 ar
    12    5    9 1
    13    6    7 ar
    14    6    8 1
    15    7   41 1
    16    8   42 1
    17    8   43 1
    18    8   44 1
    19    9   10 am
    20    9   45 1
    21   10   11 2
    22   10   12 1
    23   12   17 1
    24   12   13 1
    25   12   46 1
    26   13   14 1
    27   13   47 1
    28   13   48 1
    29   14   15 1
    30   14   49 1
    31   14   50 1
    32   15   16 1
    33   15   18 1
    34   16   17 1
    35   16   51 1
    36   16   52 1
    37   17   53 1
    38   17   54 1
    39   18   23 ar
    40   18   19 ar
    41   19   20 ar
    42   19   28 1
    43   20   21 ar
    44   20   55 1
    45   21   22 ar
    46   21   69 1
    47   22   26 1
    48   22   23 ar
    49   23   24 1
    50   24   25 2
    51   24   27 1
    52   25   26 1
    53   27   56 1
    54   27   57 1
    55   27   58 1
    56   28   29 2
    57   28   30 am
    58   30   35 1
    59   30   31 1
    60   31   32 1
    61   31   59 1
    62   31   60 1
    63   32   33 1
    64   32   61 1
    65   32   62 1
    66   33   34 1
    67   33   63 1
    68   33   64 1
    69   34   35 1
    70   34   65 1
    71   34   66 1
    72   35   67 1
    73   35   68 1
@<TRIPOS>MOLECULE
ZINC09692227
   65    68     0     0     0
SMALL
USER_CHARGES
4-methyl-N-(6-methylbenzothiazol-2-yl)-2-(1-propanoylindolin-5-yl)sulfonylamino-pentanamide
@<TRIPOS>ATOM
      1 C1          7.3691    8.8384   -1.5017 C.3       1 <0>        -0.1408
      2 C2          7.7251    7.4781   -0.8987 C.3       1 <0>        -0.1388
      3 C3          6.5933    6.5118   -1.1359 C.2       1 <0>         0.5218
      4 O1          5.5997    6.8753   -1.7290 O.2       1 <0>        -0.5056
      5 N1          6.6852    5.2435   -0.6892 N.am      1 <0>        -0.5594
      6 C4          7.8307    4.6899    0.0378 C.3       1 <0>         0.0971
      7 C5          7.4577    3.2261    0.3236 C.3       1 <0>        -0.0869
      8 C6          6.0833    3.0578   -0.2840 C.ar      1 <0>        -0.1567
      9 C7          5.7011    4.2634   -0.8510 C.ar      1 <0>         0.2066
     10 C8          4.4570    4.3535   -1.4776 C.ar      1 <0>        -0.1493
     11 C9          3.6260    3.2547   -1.5347 C.ar      1 <0>         0.0014
     12 C10         4.0143    2.0580   -0.9615 C.ar      1 <0>        -0.7022
     13 C11         5.2450    1.9611   -0.3387 C.ar      1 <0>         0.0289
     14 S1          2.9468    0.6579   -1.0307 S.o2      1 <0>         2.6922
     15 O2          3.7713   -0.4894   -0.8787 O.2       1 <0>        -0.9501
     16 O3          2.1032    0.8458   -2.1587 O.2       1 <0>        -0.9409
     17 N2          1.9708    0.7198    0.3057 N.pl3     1 <0>        -1.0920
     18 C12         1.0393    1.8368    0.4814 C.3       1 <0>         0.1478
     19 H1          1.4133    2.7094   -0.0542 H         1 <0>         0.1178
     20 C13         0.9141    2.1671    1.9700 C.3       1 <0>        -0.1212
     21 C14         2.2546    2.6889    2.4912 C.3       1 <0>        -0.0956
     22 C15         2.5685    4.0343    1.8338 C.3       1 <0>        -0.1569
     23 C16         2.1768    2.8686    4.0086 C.3       1 <0>        -0.1481
     24 C17        -0.3125    1.4541   -0.0637 C.2       1 <0>         0.4901
     25 O4         -0.4812    0.3565   -0.5510 O.2       1 <0>        -0.4374
     26 N3         -1.3325    2.3337   -0.0148 N.am      1 <0>        -0.6179
     27 C18        -2.5737    1.9839   -0.5211 C.2       1 <0>         0.3716
     28 N4         -2.9469    0.8565   -1.0801 N.2       1 <0>        -0.5019
     29 C19        -4.2026    0.6515   -1.5331 C.ar      1 <0>         0.0958
     30 C20        -4.7303   -0.5067   -2.1496 C.ar      1 <0>        -0.0592
     31 C21        -6.0390   -0.5502   -2.5535 C.ar      1 <0>        -0.1064
     32 C22        -6.8894    0.5314   -2.3746 C.ar      1 <0>        -0.0666
     33 C23        -6.4070    1.6802   -1.7752 C.ar      1 <0>        -0.0650
     34 C24        -5.0975    1.7330   -1.3673 C.ar      1 <0>        -0.1418
     35 S2         -4.0764    2.9502   -0.5721 S.3       1 <0>        -0.0001
     36 C25        -8.3244    0.4546   -2.8285 C.3       1 <0>        -0.1133
     37 H2          6.4623    9.2184   -1.0311 H         1 <0>         0.0640
     38 H3          8.1878    9.5374   -1.3301 H         1 <0>         0.0678
     39 H4          7.2037    8.7287   -2.5734 H         1 <0>         0.0641
     40 H5          7.8905    7.5878    0.1731 H         1 <0>         0.0993
     41 H6          8.6319    7.0981   -1.3693 H         1 <0>         0.0994
     42 H7          8.7286    4.7379   -0.5783 H         1 <0>         0.0902
     43 H8          7.9839    5.2317    0.9711 H         1 <0>         0.0905
     44 H9          7.4231    3.0453    1.3980 H         1 <0>         0.0980
     45 H10         8.1694    2.5523   -0.1534 H         1 <0>         0.0982
     46 H11         4.1460    5.2866   -1.9237 H         1 <0>         0.1493
     47 H12         2.6667    3.3303   -2.0250 H         1 <0>         0.1436
     48 H13         5.5518    1.0258    0.1057 H         1 <0>         0.1448
     49 H14         2.0159    0.0165    0.9721 H         1 <0>         0.4267
     50 H15         0.1481    2.9299    2.1098 H         1 <0>         0.0855
     51 H16         0.6358    1.2678    2.5196 H         1 <0>         0.0871
     52 H17         3.0414    1.9742    2.2498 H         1 <0>         0.0793
     53 H18         1.7432    4.7248    2.0072 H         1 <0>         0.0592
     54 H19         3.4821    4.4447    2.2642 H         1 <0>         0.0578
     55 H20         2.7040    3.8920    0.7616 H         1 <0>         0.0553
     56 H21         1.9532    1.9101    4.4770 H         1 <0>         0.0574
     57 H22         3.1318    3.2404    4.3799 H         1 <0>         0.0576
     58 H23         1.3900    3.5833    4.2500 H         1 <0>         0.0569
     59 H24        -1.1975    3.2117    0.3750 H         1 <0>         0.4281
     60 H25        -4.0948   -1.3662   -2.3041 H         1 <0>         0.1353
     61 H26        -6.4170   -1.4470   -3.0219 H         1 <0>         0.1351
     62 H27        -7.0566    2.5305   -1.6285 H         1 <0>         0.1336
     63 H28        -8.3987    0.8025   -3.8589 H         1 <0>         0.0762
     64 H29        -8.6700   -0.5774   -2.7677 H         1 <0>         0.0724
     65 H30        -8.9424    1.0832   -2.1874 H         1 <0>         0.0703
@<TRIPOS>BOND
     1    1    2 1
     2    1   37 1
     3    1   38 1
     4    1   39 1
     5    2    3 1
     6    2   40 1
     7    2   41 1
     8    3    4 2
     9    3    5 am
    10    5    9 1
    11    5    6 1
    12    6    7 1
    13    6   42 1
    14    6   43 1
    15    7    8 1
    16    7   44 1
    17    7   45 1
    18    8   13 ar
    19    8    9 ar
    20    9   10 ar
    21   10   11 ar
    22   10   46 1
    23   11   12 ar
    24   11   47 1
    25   12   13 ar
    26   12   14 1
    27   13   48 1
    28   14   15 2
    29   14   16 2
    30   14   17 1
    31   17   18 1
    32   17   49 1
    33   18   19 1
    34   18   20 1
    35   18   24 1
    36   20   21 1
    37   20   50 1
    38   20   51 1
    39   21   22 1
    40   21   23 1
    41   21   52 1
    42   22   53 1
    43   22   54 1
    44   22   55 1
    45   23   56 1
    46   23   57 1
    47   23   58 1
    48   24   25 2
    49   24   26 am
    50   26   27 1
    51   26   59 1
    52   27   35 1
    53   27   28 2
    54   28   29 1
    55   29   34 ar
    56   29   30 ar
    57   30   31 ar
    58   30   60 1
    59   31   32 ar
    60   31   61 1
    61   32   33 ar
    62   32   36 1
    63   33   34 ar
    64   33   62 1
    65   34   35 1
    66   36   63 1
    67   36   64 1
    68   36   65 1
@<TRIPOS>MOLECULE
ZINC16608660
   63    66     0     0     0
SMALL
USER_CHARGES
(2R,3R)-N-[5-(1,3-benzodioxol-5-yl)-1,3,4-thiadiazol-2-yl]-3-methyl-2-[(2,4,6-trimethylphenyl)sulfonylamino]pentanamide
@<TRIPOS>ATOM
      1 C1         -0.6705    0.4579    0.3182 C.3       1 <0>        -0.1526
      2 C2         -1.1887    1.2813    1.4990 C.3       1 <0>        -0.1284
      3 C3         -0.4945    0.8240    2.7834 C.3       1 <0>        -0.0943
      4 H1         -0.6326   -0.2499    2.9085 H         1 <0>         0.0913
      5 C4          1.0001    1.1392    2.6952 C.3       1 <0>        -0.1520
      6 C5         -1.1009    1.5591    3.9804 C.3       1 <0>         0.1408
      7 H2         -0.5808    1.2616    4.8910 H         1 <0>         0.1254
      8 C6         -2.5615    1.2075    4.0984 C.2       1 <0>         0.4916
      9 O1         -3.4025    2.0786    4.0287 O.2       1 <0>        -0.4325
     10 N1         -2.9333   -0.0750    4.2815 N.am      1 <0>        -0.6114
     11 C7         -4.2803   -0.3993    4.3903 C.2       1 <0>         0.2906
     12 N2         -5.3515    0.3819    4.3431 N.2       1 <0>        -0.2711
     13 N3         -6.5193   -0.0800    4.4608 N.2       1 <0>        -0.2410
     14 C8         -6.7460   -1.3758    4.6388 C.2       1 <0>         0.0985
     15 S1         -5.0647   -1.9914    4.6263 S.3       1 <0>         0.0057
     16 C9         -8.0228   -2.1038    4.7958 C.ar      1 <0>        -0.0020
     17 C10        -8.0215   -3.4883    4.9734 C.ar      1 <0>        -0.0776
     18 C11        -9.2139   -4.1659    5.1197 C.ar      1 <0>        -0.0973
     19 C12       -10.4170   -3.4758    5.0919 C.ar      1 <0>         0.0558
     20 C13       -10.4249   -2.0929    4.9152 C.ar      1 <0>         0.0356
     21 C14        -9.2324   -1.4078    4.7724 C.ar      1 <0>        -0.0530
     22 O2        -11.7197   -1.6596    4.9244 O.3       1 <0>        -0.3025
     23 C15       -12.4788   -2.7303    5.5164 C.3       1 <0>         0.2119
     24 O3        -11.7069   -3.9067    5.2115 O.3       1 <0>        -0.3040
     25 N4         -0.9606    3.0046    3.7880 N.pl3     1 <0>        -1.0908
     26 S2         -0.7601    3.9986    5.0972 S.o2      1 <0>         2.6886
     27 O4         -0.6145    5.3171    4.5876 O.2       1 <0>        -0.9458
     28 O5         -1.7733    3.6502    6.0306 O.2       1 <0>        -0.9391
     29 C16         0.7790    3.5741    5.8427 C.ar      1 <0>        -0.6942
     30 C17         1.9262    4.2660    5.5020 C.ar      1 <0>         0.0350
     31 C18         3.1328    3.9358    6.0902 C.ar      1 <0>        -0.1520
     32 C19         3.1939    2.9077    7.0122 C.ar      1 <0>        -0.0157
     33 C20         2.0476    2.2124    7.3491 C.ar      1 <0>        -0.1521
     34 C21         0.8402    2.5454    6.7641 C.ar      1 <0>         0.0273
     35 C22        -0.4095    1.7874    7.1313 C.3       1 <0>        -0.1954
     36 C23         4.5100    2.5453    7.6506 C.3       1 <0>        -0.1264
     37 C24         1.8606    5.3833    4.4929 C.3       1 <0>        -0.1402
     38 H3         -0.8827   -0.5973    0.4900 H         1 <0>         0.0556
     39 H4          0.4057    0.6007    0.2201 H         1 <0>         0.0613
     40 H5         -1.1651    0.7837   -0.5969 H         1 <0>         0.0587
     41 H6         -0.9764    2.3365    1.3271 H         1 <0>         0.0713
     42 H7         -2.2649    1.1385    1.5970 H         1 <0>         0.0659
     43 H8          1.5054    0.7551    3.5814 H         1 <0>         0.0608
     44 H9          1.4188    0.6685    1.8056 H         1 <0>         0.0716
     45 H10         1.1410    2.2184    2.6357 H         1 <0>         0.0645
     46 H11        -2.2606   -0.7717    4.3373 H         1 <0>         0.4280
     47 H12        -7.0869   -4.0289    4.9960 H         1 <0>         0.1430
     48 H13        -9.2108   -5.2371    5.2568 H         1 <0>         0.1474
     49 H14        -9.2370   -0.3360    4.6396 H         1 <0>         0.1519
     50 H15       -12.5578   -2.5930    6.5948 H         1 <0>         0.0897
     51 H16       -13.4684   -2.7937    5.0639 H         1 <0>         0.1367
     52 H17        -0.9852    3.3795    2.8937 H         1 <0>         0.4252
     53 H18         4.0283    4.4792    5.8273 H         1 <0>         0.1325
     54 H19         2.0953    1.4091    8.0695 H         1 <0>         0.1316
     55 H20        -0.6156    1.0358    6.3693 H         1 <0>         0.0730
     56 H21        -0.2677    1.2982    8.0950 H         1 <0>         0.0833
     57 H22        -1.2489    2.4798    7.1952 H         1 <0>         0.1403
     58 H23         5.0106    1.7885    7.0466 H         1 <0>         0.0803
     59 H24         5.1390    3.4331    7.7155 H         1 <0>         0.0737
     60 H25         4.3322    2.1521    8.6516 H         1 <0>         0.0733
     61 H26         1.5126    6.2937    4.9810 H         1 <0>         0.0961
     62 H27         2.8521    5.5524    4.0731 H         1 <0>         0.0734
     63 H28         1.1695    5.1120    3.6948 H         1 <0>         0.0840
@<TRIPOS>BOND
     1    1    2 1
     2    1   38 1
     3    1   39 1
     4    1   40 1
     5    2    3 1
     6    2   41 1
     7    2   42 1
     8    3    4 1
     9    3    5 1
    10    3    6 1
    11    5   43 1
    12    5   44 1
    13    5   45 1
    14    6    7 1
    15    6    8 1
    16    6   25 1
    17    8    9 2
    18    8   10 am
    19   10   11 1
    20   10   46 1
    21   11   15 1
    22   11   12 2
    23   12   13 1
    24   13   14 2
    25   14   15 1
    26   14   16 1
    27   16   21 ar
    28   16   17 ar
    29   17   18 ar
    30   17   47 1
    31   18   19 ar
    32   18   48 1
    33   19   24 1
    34   19   20 ar
    35   20   21 ar
    36   20   22 1
    37   21   49 1
    38   22   23 1
    39   23   24 1
    40   23   50 1
    41   23   51 1
    42   25   26 1
    43   25   52 1
    44   26   27 2
    45   26   28 2
    46   26   29 1
    47   29   34 ar
    48   29   30 ar
    49   30   31 ar
    50   30   37 1
    51   31   32 ar
    52   31   53 1
    53   32   33 ar
    54   32   36 1
    55   33   34 ar
    56   33   54 1
    57   34   35 1
    58   35   55 1
    59   35   56 1
    60   35   57 1
    61   36   58 1
    62   36   59 1
    63   36   60 1
    64   37   61 1
    65   37   62 1
    66   37   63 1
@<TRIPOS>MOLECULE
ZINC36019607
   77    81     0     0     0
SMALL
USER_CHARGES

@<TRIPOS>ATOM
      1 C1          1.0576    1.5117   -0.4491 C.ar      1 <0>        -0.1376
      2 C2          2.2388    1.9829   -0.9968 C.ar      1 <0>        -0.0576
      3 C3          3.2121    1.0990   -1.4229 C.ar      1 <0>        -0.1634
      4 C4          3.0113   -0.2644   -1.3049 C.ar      1 <0>         0.1646
      5 C5          1.8202   -0.7457   -0.7525 C.ar      1 <0>        -0.1795
      6 C6          0.8430    0.1557   -0.3244 C.ar      1 <0>        -0.0574
      7 C7          1.5966   -2.1995   -0.6229 C.2       1 <0>         0.5613
      8 O1          2.4492   -2.9815   -0.9970 O.2       1 <0>        -0.5004
      9 N1          0.4474   -2.6597   -0.0900 N.am      1 <0>        -0.6694
     10 C8          0.1983   -4.0377   -0.0453 C.ar      1 <0>         0.1392
     11 C9          1.2452   -4.9246    0.1876 C.ar      1 <0>        -0.0899
     12 C10         1.0109   -6.2827    0.2331 C.ar      1 <0>        -0.1075
     13 C11        -0.2747   -6.7756    0.0463 C.ar      1 <0>         0.2089
     14 C12        -1.3347   -5.8870   -0.1886 C.ar      1 <0>        -0.1181
     15 C13        -1.0885   -4.5122   -0.2273 C.ar      1 <0>        -0.1116
     16 C14        -2.7022   -6.4008   -0.3879 C.2       1 <0>         0.5726
     17 O2         -3.1972   -7.1472    0.4346 O.2       1 <0>        -0.5227
     18 N2         -3.4036   -6.0433   -1.4819 N.am      1 <0>        -0.6074
     19 C15        -2.8502   -5.0811   -2.4445 C.3       1 <0>         0.0987
     20 C16        -2.8915   -5.7040   -3.8434 C.3       1 <0>        -0.1353
     21 C17        -4.3207   -6.1538   -4.1553 C.3       1 <0>        -0.1204
     22 C18        -4.7563   -7.2142   -3.1413 C.3       1 <0>        -0.1349
     23 C19        -4.7336   -6.6130   -1.7376 C.3       1 <0>         0.1136
     24 N3         -0.5099   -8.1455    0.0914 N.pl3     1 <0>        -0.6701
     25 C20        -0.4198   -8.9605   -1.1283 C.3       1 <0>         0.1333
     26 C21         0.5764  -10.1005   -0.8835 C.3       1 <0>         0.1164
     27 N4          0.2339  -10.7593    0.3848 N.am      1 <0>        -0.6252
     28 C22         0.1438   -9.9443    1.6045 C.3       1 <0>         0.0952
     29 C23        -0.8469   -8.8051    1.3607 C.3       1 <0>         0.1413
     30 C24         0.0059  -12.0869    0.4286 C.2       1 <0>         0.7091
     31 O3          0.1813  -12.7669   -0.5640 O.2       1 <0>        -0.5887
     32 N5         -0.4164  -12.6608    1.5726 N.am      1 <0>        -0.7438
     33 C25        -0.5516  -14.1172    1.6550 C.3       1 <0>         0.1646
     34 C26        -1.9203  -14.5339    1.1129 C.3       1 <0>        -0.1289
     35 C27        -2.0615  -16.0549    1.1989 C.3       1 <0>        -0.1174
     36 C28        -1.9348  -16.4971    2.6582 C.3       1 <0>        -0.1224
     37 C29        -0.5661  -16.0804    3.2003 C.3       1 <0>        -0.1156
     38 C30        -0.4249  -14.5594    3.1142 C.3       1 <0>        -0.1266
     39 F1          3.9625   -1.1282   -1.7224 F         1 <0>        -0.1124
     40 H1          0.3038    2.2090   -0.1144 H         1 <0>         0.1394
     41 H2          2.4002    3.0465   -1.0918 H         1 <0>         0.1413
     42 H3          4.1311    1.4736   -1.8492 H         1 <0>         0.1460
     43 H4         -0.0792   -0.2090    0.1035 H         1 <0>         0.1356
     44 H5         -0.2073   -2.0368    0.2625 H         1 <0>         0.4108
     45 H6          2.2466   -4.5472    0.3332 H         1 <0>         0.1435
     46 H7          1.8284   -6.9648    0.4140 H         1 <0>         0.1339
     47 H8         -1.9001   -3.8217   -0.4032 H         1 <0>         0.1316
     48 H9         -3.4466   -4.1688   -2.4330 H         1 <0>         0.0691
     49 H10        -1.8190   -4.8495   -2.1779 H         1 <0>         0.0923
     50 H11        -2.5735   -4.9660   -4.5798 H         1 <0>         0.0758
     51 H12        -2.2235   -6.5646   -3.8783 H         1 <0>         0.0672
     52 H13        -4.9921   -5.2972   -4.0959 H         1 <0>         0.0645
     53 H14        -4.3578   -6.5751   -5.1599 H         1 <0>         0.0668
     54 H15        -5.7655   -7.5510   -3.3780 H         1 <0>         0.0763
     55 H16        -4.0707   -8.0606   -3.1828 H         1 <0>         0.0661
     56 H17        -4.9446   -7.3918   -1.0047 H         1 <0>         0.0919
     57 H18        -5.4869   -5.8284   -1.6672 H         1 <0>         0.0667
     58 H19        -1.3998   -9.3753   -1.3642 H         1 <0>         0.0546
     59 H20        -0.0724   -8.3426   -1.9563 H         1 <0>         0.0789
     60 H21         0.5147  -10.8216   -1.6985 H         1 <0>         0.0986
     61 H22         1.5872   -9.6968   -0.8247 H         1 <0>         0.0678
     62 H23        -0.2036  -10.5622    2.4325 H         1 <0>         0.0804
     63 H24         1.1238   -9.5294    1.8404 H         1 <0>         0.0716
     64 H25        -0.7815   -8.0847    2.1760 H         1 <0>         0.0798
     65 H26        -1.8580   -9.2087    1.3061 H         1 <0>         0.0633
     66 H27        -0.6308  -12.1095    2.3414 H         1 <0>         0.3937
     67 H28         0.2327  -14.5890    1.0630 H         1 <0>         0.0861
     68 H29        -2.7046  -14.0621    1.7049 H         1 <0>         0.0611
     69 H30        -2.0106  -14.2188    0.0733 H         1 <0>         0.0685
     70 H31        -3.0366  -16.3517    0.8127 H         1 <0>         0.0642
     71 H32        -1.2773  -16.5267    0.6069 H         1 <0>         0.0643
     72 H33        -2.7190  -16.0253    3.2502 H         1 <0>         0.0623
     73 H34        -2.0354  -17.5807    2.7195 H         1 <0>         0.0639
     74 H35        -0.4758  -16.3955    4.2399 H         1 <0>         0.0672
     75 H36         0.2182  -16.5522    2.6083 H         1 <0>         0.0654
     76 H37         0.5502  -14.2626    3.5004 H         1 <0>         0.0677
     77 H38        -1.2091  -14.0876    3.7062 H         1 <0>         0.0671
@<TRIPOS>BOND
     1    1    6 ar
     2    1    2 ar
     3    1   40 1
     4    2    3 ar
     5    2   41 1
     6    3    4 ar
     7    3   42 1
     8    4    5 ar
     9    4   39 1
    10    5    6 ar
    11    5    7 1
    12    6   43 1
    13    7    8 2
    14    7    9 am
    15    9   10 1
    16    9   44 1
    17   10   15 ar
    18   10   11 ar
    19   11   12 ar
    20   11   45 1
    21   12   13 ar
    22   12   46 1
    23   13   14 ar
    24   13   24 1
    25   14   15 ar
    26   14   16 1
    27   15   47 1
    28   16   17 2
    29   16   18 am
    30   18   23 1
    31   18   19 1
    32   19   20 1
    33   19   48 1
    34   19   49 1
    35   20   21 1
    36   20   50 1
    37   20   51 1
    38   21   22 1
    39   21   52 1
    40   21   53 1
    41   22   23 1
    42   22   54 1
    43   22   55 1
    44   23   56 1
    45   23   57 1
    46   24   29 1
    47   24   25 1
    48   25   26 1
    49   25   58 1
    50   25   59 1
    51   26   27 1
    52   26   60 1
    53   26   61 1
    54   27   28 1
    55   27   30 am
    56   28   29 1
    57   28   62 1
    58   28   63 1
    59   29   64 1
    60   29   65 1
    61   30   31 2
    62   30   32 am
    63   32   33 1
    64   32   66 1
    65   33   38 1
    66   33   34 1
    67   33   67 1
    68   34   35 1
    69   34   68 1
    70   34   69 1
    71   35   36 1
    72   35   70 1
    73   35   71 1
    74   36   37 1
    75   36   72 1
    76   36   73 1
    77   37   38 1
    78   37   74 1
    79   37   75 1
    80   38   76 1
    81   38   77 1
@<TRIPOS>MOLECULE
ZINC39836557
   68    72     0     0     0
SMALL
USER_CHARGES

@<TRIPOS>ATOM
      1 C1         -0.0184    1.5028    0.0103 C.3       1 <0>        -0.1011
      2 C2          0.0021   -0.0041    0.0020 C.2       1 <0>        -0.0477
      3 C3          0.0087   -0.8769   -1.1713 C.ar      1 <0>        -0.1484
      4 C4         -0.0008   -0.6544   -2.5505 C.ar      1 <0>        -0.0526
      5 C5          0.0095   -1.7180   -3.4080 C.ar      1 <0>        -0.1372
      6 C6          0.0292   -3.0168   -2.9177 C.ar      1 <0>        -0.0730
      7 C7          0.0389   -3.2575   -1.5609 C.ar      1 <0>        -0.1142
      8 C8          0.0288   -2.1913   -0.6688 C.ar      1 <0>         0.0811
      9 O1          0.0337   -2.1134    0.6762 O.3       1 <0>        -0.1868
     10 C9          0.0240   -0.8267    1.0830 C.2       1 <0>        -0.0540
     11 C10         0.0319   -0.3827    2.4833 C.2       1 <0>         0.6019
     12 O2          0.0183    0.8055    2.7448 O.2       1 <0>        -0.4738
     13 N1          0.0541   -1.2915    3.4783 N.am      1 <0>        -0.6108
     14 C11         0.0615   -0.8728    4.7985 C.2       1 <0>         0.0360
     15 C12         0.0892   -1.6573    5.9414 C.2       1 <0>        -0.2309
     16 C13         0.0909   -0.9679    7.2199 C.2       1 <0>        -0.0617
     17 C14         0.0644    0.3787    7.1215 C.2       1 <0>        -0.2165
     18 S1          0.0465    0.7016    5.3825 S.3       1 <0>         0.2914
     19 C15         0.0575    1.3632    8.2500 C.3       1 <0>        -0.0343
     20 C16        -0.2954    0.6125    9.5425 C.3       1 <0>        -0.0686
     21 H1         -1.3495    0.3353    9.5276 H         1 <0>         0.0763
     22 C17         0.5659   -0.6505    9.6331 C.3       1 <0>        -0.1176
     23 C18         0.1201   -1.6615    8.5740 C.3       1 <0>        -0.0592
     24 C19        -0.0191    1.5118   10.7491 C.3       1 <0>        -0.0625
     25 C20        -0.8717    2.7781   10.6473 C.3       1 <0>        -0.1457
     26 C21        -0.3713    0.7619   12.0354 C.3       1 <0>        -0.1450
     27 C22         1.4621    1.8946   10.7713 C.3       1 <0>        -0.1489
     28 C23         0.1150   -3.1209    5.8628 C.2       1 <0>         0.5852
     29 O3          1.1796   -3.7093    5.8184 O.2       1 <0>        -0.5225
     30 N2         -1.0400   -3.8151    5.8397 N.am      1 <0>        -0.7153
     31 C24        -1.0142   -5.2777    5.7612 C.3       1 <0>         0.1446
     32 H2         -0.1656   -5.5924    5.1537 H         1 <0>         0.1132
     33 C25        -0.8738   -5.8626    7.1763 C.3       1 <0>        -0.1455
     34 C26        -1.1627   -7.3891    7.1004 C.3       1 <0>        -0.5692
     35 S2         -2.5872   -7.4049    5.9319 S.o2      1 <0>         2.3771
     36 O4         -3.7965   -7.3564    6.6766 O.2       1 <0>        -0.9285
     37 O5         -2.3931   -8.4422    4.9803 O.2       1 <0>        -0.9306
     38 C27        -2.3258   -5.7807    5.1115 C.3       1 <0>        -0.6008
     39 H3          1.0042    1.8801    0.0026 H         1 <0>         0.0845
     40 H4         -0.5455    1.8639   -0.8728 H         1 <0>         0.0754
     41 H5         -0.5286    1.8543    0.9071 H         1 <0>         0.0935
     42 H6         -0.0165    0.3539   -2.9372 H         1 <0>         0.1335
     43 H7          0.0018   -1.5473   -4.4744 H         1 <0>         0.1359
     44 H8          0.0368   -3.8478   -3.6075 H         1 <0>         0.1414
     45 H9          0.0539   -4.2722   -1.1914 H         1 <0>         0.1377
     46 H10         0.0649   -2.2387    3.2698 H         1 <0>         0.4238
     47 H11         1.0433    1.8181    8.3467 H         1 <0>         0.0880
     48 H12        -0.6872    2.1359    8.0589 H         1 <0>         0.0824
     49 H13         1.6109   -0.3888    9.4672 H         1 <0>         0.0696
     50 H14         0.4575   -1.0924   10.6236 H         1 <0>         0.0752
     51 H15        -0.8760   -2.0314    8.8168 H         1 <0>         0.0767
     52 H16         0.8242   -2.4930    8.5438 H         1 <0>         0.0749
     53 H17        -1.9269    2.5053   10.6315 H         1 <0>         0.0552
     54 H18        -0.6748    3.4187   11.5069 H         1 <0>         0.0555
     55 H19        -0.6207    3.3123    9.7309 H         1 <0>         0.0577
     56 H20         0.2361   -0.1403   12.1080 H         1 <0>         0.0587
     57 H21        -0.1745    1.4025   12.8950 H         1 <0>         0.0555
     58 H22        -1.4265    0.4891   12.0196 H         1 <0>         0.0548
     59 H23         1.7130    2.4288    9.8550 H         1 <0>         0.0586
     60 H24         1.6589    2.5353   11.6309 H         1 <0>         0.0548
     61 H25         2.0695    0.9924   10.8439 H         1 <0>         0.0582
     62 H26        -1.8884   -3.3462    5.8751 H         1 <0>         0.4075
     63 H27         0.1389   -5.6974    7.5441 H         1 <0>         0.1081
     64 H28        -1.5902   -5.3851    7.8448 H         1 <0>         0.0935
     65 H29        -0.3107   -7.9316    6.6906 H         1 <0>         0.1435
     66 H30        -1.4478   -7.7852    8.0750 H         1 <0>         0.1465
     67 H31        -3.1499   -5.1009    5.3282 H         1 <0>         0.1462
     68 H32        -2.2006   -5.9075    4.0361 H         1 <0>         0.1494
@<TRIPOS>BOND
     1    1    2 1
     2    1   39 1
     3    1   40 1
     4    1   41 1
     5    2   10 2
     6    2    3 1
     7    3    8 ar
     8    3    4 ar
     9    4    5 ar
    10    4   42 1
    11    5    6 ar
    12    5   43 1
    13    6    7 ar
    14    6   44 1
    15    7    8 ar
    16    7   45 1
    17    8    9 1
    18    9   10 1
    19   10   11 1
    20   11   12 2
    21   11   13 am
    22   13   14 1
    23   13   46 1
    24   14   18 1
    25   14   15 2
    26   15   16 1
    27   15   28 1
    28   16   23 1
    29   16   17 2
    30   17   18 1
    31   17   19 1
    32   19   20 1
    33   19   47 1
    34   19   48 1
    35   20   21 1
    36   20   22 1
    37   20   24 1
    38   22   23 1
    39   22   49 1
    40   22   50 1
    41   23   51 1
    42   23   52 1
    43   24   25 1
    44   24   26 1
    45   24   27 1
    46   25   53 1
    47   25   54 1
    48   25   55 1
    49   26   56 1
    50   26   57 1
    51   26   58 1
    52   27   59 1
    53   27   60 1
    54   27   61 1
    55   28   29 2
    56   28   30 am
    57   30   31 1
    58   30   62 1
    59   31   32 1
    60   31   38 1
    61   31   33 1
    62   33   34 1
    63   33   63 1
    64   33   64 1
    65   34   35 1
    66   34   65 1
    67   34   66 1
    68   35   36 2
    69   35   37 2
    70   35   38 1
    71   38   67 1
    72   38   68 1
@<TRIPOS>MOLECULE
ZINC22861037
   65    68     0     0     0
SMALL
USER_CHARGES

@<TRIPOS>ATOM
      1 C1         -0.0187    1.5258    0.0104 C.3       1 <0>        -0.1481
      2 C2          0.0021   -0.0041    0.0020 C.3       1 <0>        -0.0632
      3 C3          0.7421   -0.5109    1.2415 C.3       1 <0>        -0.1453
      4 C4         -1.4333   -0.5336    0.0129 C.3       1 <0>        -0.1454
      5 C5          0.7182   -0.4975   -1.2568 C.3       1 <0>        -0.0725
      6 H1          0.7339   -1.5873   -1.2644 H         1 <0>         0.0750
      7 C6         -0.0173    0.0135   -2.4989 C.3       1 <0>        -0.1156
      8 C7          0.5374   -0.6699   -3.7508 C.3       1 <0>        -0.0620
      9 C8          2.0512   -0.5161   -3.7598 C.2       1 <0>        -0.0686
     10 C9          2.7313   -0.1988   -2.6364 C.2       1 <0>        -0.2513
     11 S1          4.4254   -0.1351   -3.1408 S.3       1 <0>         0.3969
     12 C10         4.2541   -0.5120   -4.7683 C.2       1 <0>        -0.0015
     13 C11         2.8898   -0.6887   -4.9328 C.2       1 <0>        -0.1015
     14 C12         2.3299   -1.0280   -6.2064 C.1       1 <0>         0.2632
     15 N1          1.8858   -1.2971   -7.2167 N.1       1 <0>        -0.4263
     16 N2          5.2498   -0.6206   -5.7278 N.pl3     1 <0>        -0.5534
     17 C13         6.5377   -0.4130   -5.3891 C.2       1 <0>         0.4762
     18 S2          6.9446   -0.0152   -3.7744 S.2       1 <0>        -0.3617
     19 N3          7.5052   -0.5186   -6.3214 N.am      1 <0>        -0.6367
     20 C14         8.7930   -0.3109   -5.9826 C.2       1 <0>         0.5417
     21 O1          9.0820   -0.0284   -4.8360 O.2       1 <0>        -0.3720
     22 C15         9.8508   -0.4263   -7.0020 C.ar      1 <0>        -0.1530
     23 C16         9.5229   -0.7453   -8.3228 C.ar      1 <0>        -0.0199
     24 C17        10.5164   -0.8517   -9.2708 C.ar      1 <0>        -0.0570
     25 C18        11.8421   -0.6445   -8.9226 C.ar      1 <0>        -0.0160
     26 C19        12.1823   -0.3290   -7.6234 C.ar      1 <0>        -0.1276
     27 C20        11.1937   -0.2110   -6.6540 C.ar      1 <0>         0.3000
     28 N4         11.5328    0.1126   -5.3470 N.pl3     1 <0>        -0.6771
     29 C21        11.8502   -0.9364   -4.3649 C.3       1 <0>         0.1130
     30 C22        13.1811   -0.5818   -3.6919 C.3       1 <0>         0.0480
     31 O2         13.1143    0.7561   -3.1926 O.3       1 <0>        -0.3751
     32 C23        12.9297    1.7497   -4.2038 C.3       1 <0>         0.0481
     33 C24        11.5914    1.5148   -4.9046 C.3       1 <0>         0.1130
     34 N5         10.1667   -1.1895  -10.6688 N.pl3     1 <0>         0.0319
     35 O3          9.0116   -1.3713  -10.9760 O.2       1 <0>        -0.1562
     36 O4         11.0362   -1.2837  -11.5036 O.3       1 <0>        -0.1430
     37 C25         2.1577    0.0378   -1.2729 C.3       1 <0>        -0.0359
     38 H2          1.0039    1.9031    0.0027 H         1 <0>         0.0594
     39 H3         -0.5459    1.8868   -0.8726 H         1 <0>         0.0575
     40 H4         -0.5289    1.8773    0.9072 H         1 <0>         0.0532
     41 H5          0.2319   -0.1594    2.1383 H         1 <0>         0.0540
     42 H6          0.7568   -1.6008    1.2356 H         1 <0>         0.0546
     43 H7          1.7647   -0.1336    1.2338 H         1 <0>         0.0585
     44 H8         -1.9605   -0.1726   -0.8702 H         1 <0>         0.0584
     45 H9         -1.4185   -1.6235    0.0069 H         1 <0>         0.0543
     46 H10        -1.9435   -0.1821    0.9097 H         1 <0>         0.0541
     47 H11        -1.0806   -0.2079   -2.4067 H         1 <0>         0.0725
     48 H12         0.1207    1.0914   -2.5836 H         1 <0>         0.0687
     49 H13         0.2775   -1.7283   -3.7353 H         1 <0>         0.0754
     50 H14         0.1170   -0.2007   -4.6403 H         1 <0>         0.0697
     51 H15         5.0192   -0.8460   -6.6427 H         1 <0>         0.4155
     52 H16         7.2746   -0.7439   -7.2363 H         1 <0>         0.4144
     53 H17         8.4918   -0.9084   -8.5996 H         1 <0>         0.1515
     54 H18        12.6138   -0.7310   -9.6732 H         1 <0>         0.1647
     55 H19        13.2175   -0.1692   -7.3604 H         1 <0>         0.1596
     56 H20        11.0614   -0.9874   -3.6144 H         1 <0>         0.0779
     57 H21        11.9393   -1.8979   -4.8706 H         1 <0>         0.0747
     58 H22        13.3664   -1.2695   -2.8668 H         1 <0>         0.1031
     59 H23        13.9890   -0.6589   -4.4195 H         1 <0>         0.0518
     60 H24        12.9341    2.7393   -3.7470 H         1 <0>         0.1035
     61 H25        13.7366    1.6810   -4.9333 H         1 <0>         0.0514
     62 H26        11.5091    2.1757   -5.7674 H         1 <0>         0.0746
     63 H27        10.7761    1.7147   -4.2093 H         1 <0>         0.0776
     64 H28         2.1548    1.1062   -1.0574 H         1 <0>         0.0870
     65 H29         2.7531   -0.4867   -0.5255 H         1 <0>         0.0815
@<TRIPOS>BOND
     1    1    2 1
     2    1   38 1
     3    1   39 1
     4    1   40 1
     5    2    3 1
     6    2    4 1
     7    2    5 1
     8    3   41 1
     9    3   42 1
    10    3   43 1
    11    4   44 1
    12    4   45 1
    13    4   46 1
    14    5    6 1
    15    5   37 1
    16    5    7 1
    17    7    8 1
    18    7   47 1
    19    7   48 1
    20    8    9 1
    21    8   49 1
    22    8   50 1
    23    9   13 1
    24    9   10 2
    25   10   11 1
    26   10   37 1
    27   11   12 1
    28   12   13 2
    29   12   16 1
    30   13   14 1
    31   14   15 3
    32   16   17 1
    33   16   51 1
    34   17   18 2
    35   17   19 1
    36   19   20 am
    37   19   52 1
    38   20   21 2
    39   20   22 1
    40   22   27 ar
    41   22   23 ar
    42   23   24 ar
    43   23   53 1
    44   24   25 ar
    45   24   34 1
    46   25   26 ar
    47   25   54 1
    48   26   27 ar
    49   26   55 1
    50   27   28 1
    51   28   33 1
    52   28   29 1
    53   29   30 1
    54   29   56 1
    55   29   57 1
    56   30   31 1
    57   30   58 1
    58   30   59 1
    59   31   32 1
    60   32   33 1
    61   32   60 1
    62   32   61 1
    63   33   62 1
    64   33   63 1
    65   34   35 2
    66   34   36 1
    67   37   64 1
    68   37   65 1
@<TRIPOS>MOLECULE
ZINC02911877
   63    68     0     0     0
SMALL
USER_CHARGES
N-(2,5-dioxabicyclo[4.4.0]deca-7,9,11-trien-8-yl)-4,9-dimethyl-2-[4-(2-pyridyl)piperazin-1-yl]-7-thia-3,5-diazabicyclo[4.3.0]nona-2,4,8,10-tetraene-8-carboxamide
@<TRIPOS>ATOM
      1 C1          3.9709   -5.0124    0.2668 C.3       1 <0>        -0.1169
      2 C2          5.1354   -4.0563    0.2373 C.2       1 <0>         0.0115
      3 C3          6.4465   -4.5441    0.3156 C.ar      1 <0>        -0.1834
      4 C4          6.9037   -5.8915    0.4259 C.ar      1 <0>         0.4127
      5 N1          8.2037   -6.1284    0.4854 N.ar      1 <0>        -0.5525
      6 C5          9.1000   -5.1590    0.4461 C.ar      1 <0>         0.3727
      7 N2          8.7418   -3.8933    0.3452 N.ar      1 <0>        -0.4748
      8 C6          7.4682   -3.5634    0.2801 C.ar      1 <0>         0.1373
      9 S1          6.5680   -2.0414    0.1349 S.3       1 <0>         0.1630
     10 C7          4.9159   -2.7165    0.1350 C.2       1 <0>        -0.2158
     11 C8          3.6363   -2.0036    0.0413 C.2       1 <0>         0.6084
     12 O1          2.5908   -2.6264    0.0502 O.2       1 <0>        -0.4948
     13 N3          3.6192   -0.6594   -0.0545 N.am      1 <0>        -0.6585
     14 C9          2.3992    0.0275   -0.0473 C.ar      1 <0>         0.1406
     15 C10         2.3062    1.2721    0.5616 C.ar      1 <0>        -0.1313
     16 C11         1.1025    1.9495    0.5697 C.ar      1 <0>        -0.0924
     17 C12        -0.0163    1.3898   -0.0295 C.ar      1 <0>         0.0439
     18 C13         0.0743    0.1456   -0.6423 C.ar      1 <0>         0.0689
     19 C14         1.2823   -0.5348   -0.6492 C.ar      1 <0>        -0.1130
     20 O2         -1.0106   -0.4155   -1.2432 O.3       1 <0>        -0.3047
     21 C15        -2.2905    0.1220   -0.8932 C.3       1 <0>         0.0200
     22 C16        -2.1980    1.6531   -0.9397 C.3       1 <0>         0.0194
     23 O3         -1.1966    2.0691   -0.0039 O.3       1 <0>        -0.3047
     24 C17        10.5646   -5.5065    0.5187 C.3       1 <0>        -0.0901
     25 N4          6.0007   -6.9343    0.4701 N.pl3     1 <0>        -0.4867
     26 C18         6.1546   -7.7121    1.7074 C.3       1 <0>         0.0511
     27 C19         5.0862   -8.8069    1.7548 C.3       1 <0>         0.0574
     28 N5          5.2205   -9.6703    0.5732 N.pl3     1 <0>        -0.4769
     29 C20         5.0666   -8.8925   -0.6641 C.3       1 <0>         0.0223
     30 C21         6.1351   -7.7977   -0.7115 C.3       1 <0>         0.0614
     31 C22         4.3111  -10.7206    0.6177 C.ar      1 <0>         0.3698
     32 C23         4.2990  -11.5762    1.7148 C.ar      1 <0>        -0.1502
     33 C24         3.3888  -12.6170    1.7460 C.ar      1 <0>         0.0366
     34 C25         2.5178  -12.7681    0.6749 C.ar      1 <0>        -0.1470
     35 C26         2.5850  -11.8822   -0.3813 C.ar      1 <0>         0.1473
     36 H1          3.7791   -5.3826   -0.7403 H         1 <0>         0.0738
     37 H2          4.2052   -5.8503    0.9234 H         1 <0>         0.0846
     38 H3          3.0860   -4.4958    0.6387 H         1 <0>         0.0944
     39 H4          4.4522   -0.1678   -0.1284 H         1 <0>         0.4136
     40 H5          3.1755    1.7106    1.0288 H         1 <0>         0.1391
     41 H6          1.0322    2.9172    1.0441 H         1 <0>         0.1439
     42 H7          1.3540   -1.5028   -1.1228 H         1 <0>         0.1512
     43 H8         -3.0409   -0.2227   -1.6047 H         1 <0>         0.1249
     44 H9         -2.5619   -0.2001    0.1121 H         1 <0>         0.0795
     45 H10        -1.9209    1.9743   -1.9438 H         1 <0>         0.0803
     46 H11        -3.1593    2.0880   -0.6662 H         1 <0>         0.1256
     47 H12        10.8840   -5.5181    1.5608 H         1 <0>         0.0976
     48 H13        10.7269   -6.4901    0.0780 H         1 <0>         0.0931
     49 H14        11.1421   -4.7626   -0.0301 H         1 <0>         0.0967
     50 H15         7.1442   -8.1685    1.7294 H         1 <0>         0.0806
     51 H16         6.0385   -7.0532    2.5680 H         1 <0>         0.1053
     52 H17         4.0968   -8.3495    1.7603 H         1 <0>         0.0828
     53 H18         5.2165   -9.4034    2.6577 H         1 <0>         0.1156
     54 H19         4.0770   -8.4361   -0.6860 H         1 <0>         0.0827
     55 H20         5.1827   -9.5514   -1.5246 H         1 <0>         0.1058
     56 H21         6.0048   -7.2012   -1.6144 H         1 <0>         0.1039
     57 H22         7.1245   -8.2551   -0.7170 H         1 <0>         0.0794
     58 H23         4.9907  -11.4293    2.5311 H         1 <0>         0.1864
     59 H24         3.3564  -13.2972    2.5843 H         1 <0>         0.1792
     60 H25         1.7949  -13.5705    0.6688 H         1 <0>         0.1873
     61 H26         1.9095  -11.9961   -1.2163 H         1 <0>         0.1974
     62 N6          3.4620  -10.8447   -0.4430 N.ar      1 <0>        -0.5241
     63 H27         3.4838  -10.1954   -1.2381 H         1 <0>         0.4689
@<TRIPOS>BOND
     1    1    2 1
     2    1   36 1
     3    1   37 1
     4    1   38 1
     5    2   10 2
     6    2    3 1
     7    3    8 ar
     8    3    4 ar
     9    4    5 ar
    10    4   25 1
    11    5    6 ar
    12    6    7 ar
    13    6   24 1
    14    7    8 ar
    15    8    9 1
    16    9   10 1
    17   10   11 1
    18   11   12 2
    19   11   13 am
    20   13   14 1
    21   13   39 1
    22   14   19 ar
    23   14   15 ar
    24   15   16 ar
    25   15   40 1
    26   16   17 ar
    27   16   41 1
    28   17   23 1
    29   17   18 ar
    30   18   19 ar
    31   18   20 1
    32   19   42 1
    33   20   21 1
    34   21   22 1
    35   21   43 1
    36   21   44 1
    37   22   23 1
    38   22   45 1
    39   22   46 1
    40   24   47 1
    41   24   48 1
    42   24   49 1
    43   25   30 1
    44   25   26 1
    45   26   27 1
    46   26   50 1
    47   26   51 1
    48   27   28 1
    49   27   52 1
    50   27   53 1
    51   28   29 1
    52   28   31 1
    53   29   30 1
    54   29   54 1
    55   29   55 1
    56   30   56 1
    57   30   57 1
    58   31   32 ar
    59   31   62 ar
    60   32   33 ar
    61   32   58 1
    62   33   34 ar
    63   33   59 1
    64   34   35 ar
    65   34   60 1
    66   35   61 1
    67   35   62 ar
    68   62   63 1
@<TRIPOS>MOLECULE
ZINC00719918
   80    86     0     0     0
SMALL
USER_CHARGES
[4-(2-adamantyl)piperazin-1-yl]-[(5S,7S)-5-(3,4-dimethoxyphenyl)-7-(trifluoromethyl)-4,5,6,7-tetrahydropyrazolo[1,5-a]pyrimidin-2-yl]methanone
@<TRIPOS>ATOM
      1 C1         -2.1803   -3.7516   -6.1228 C.3       1 <0>         0.0227
      2 O1         -1.8676   -4.9806   -5.4642 O.3       1 <0>        -0.3015
      3 C2         -1.4325   -4.8987   -4.1783 C.ar      1 <0>         0.1104
      4 C3         -1.3099   -3.6626   -3.5642 C.ar      1 <0>        -0.1709
      5 C4         -0.8733   -3.5815   -2.2550 C.ar      1 <0>        -0.1166
      6 C5         -0.5474   -4.7310   -1.5593 C.ar      1 <0>        -0.1171
      7 C6         -0.6676   -5.9673   -2.1661 C.ar      1 <0>        -0.1563
      8 C7         -1.1100   -6.0560   -3.4762 C.ar      1 <0>         0.1085
      9 O2         -1.2291   -7.2715   -4.0744 O.3       1 <0>        -0.3021
     10 C8         -0.8808   -8.4161   -3.2930 C.3       1 <0>         0.0203
     11 C9         -0.0661   -4.6364   -0.1344 C.3       1 <0>         0.1993
     12 H1          0.4867   -5.5535    0.1174 H         1 <0>         0.1238
     13 C10        -1.2602   -4.4285    0.8037 C.3       1 <0>        -0.1501
     14 C11        -2.0410   -3.1775    0.3852 C.3       1 <0>         0.1241
     15 H2         -2.5407   -3.3290   -0.5830 H         1 <0>         0.1402
     16 N1         -1.1020   -2.0633    0.2271 N.pl3     1 <0>        -0.3927
     17 C12         0.2434   -2.2249    0.0530 C.2       1 <0>         0.3935
     18 C13         0.8027   -1.0034   -0.0522 C.2       1 <0>        -0.2693
     19 C14        -0.2333   -0.0485    0.0584 C.2       1 <0>         0.0680
     20 N2         -1.3726   -0.6955    0.2309 N.2       1 <0>        -0.2801
     21 C15        -0.0702    1.4185   -0.0019 C.2       1 <0>         0.6128
     22 O3          1.0432    1.9051   -0.0418 O.2       1 <0>        -0.4944
     23 N3         -1.1557    2.2171   -0.0183 N.am      1 <0>        -0.6203
     24 C16        -1.0181    3.6752   -0.1538 C.3       1 <0>         0.0887
     25 C17        -1.9379    4.1423   -1.2932 C.3       1 <0>        -0.0240
     26 N4         -3.3048    3.6691   -1.0372 N.4       1 <0>        -0.4019
     27 C18        -3.3697    2.2015   -1.0387 C.3       1 <0>        -0.0189
     28 C19        -2.5089    1.6543    0.1049 C.3       1 <0>         0.0500
     29 C20        -4.2494    4.2388   -2.0073 C.3       1 <0>         0.0435
     30 C21        -4.1036    5.7617   -2.0273 C.3       1 <0>        -0.1020
     31 C22        -5.0874    6.3551   -3.0376 C.3       1 <0>        -0.1069
     32 C23        -6.5165    5.9848   -2.6358 C.3       1 <0>        -0.0937
     33 C24        -6.8160    6.5440   -1.2435 C.3       1 <0>        -0.1139
     34 C25        -5.8321    5.9507   -0.2331 C.3       1 <0>        -0.0925
     35 C26        -4.4030    6.3209   -0.6350 C.3       1 <0>        -0.1259
     36 C27        -5.9780    4.4278   -0.2132 C.3       1 <0>        -0.1245
     37 C28        -5.6785    3.8685   -1.6055 C.3       1 <0>        -0.1007
     38 C29        -6.6624    4.4619   -2.6159 C.3       1 <0>        -0.1066
     39 N5          0.8468   -3.4848    0.0051 N.pl3     1 <0>        -0.7309
     40 C30        -3.0702   -2.8313    1.4630 C.3       1 <0>         0.4573
     41 F1         -2.4133   -2.5863    2.6736 F         1 <0>        -0.1700
     42 F2         -3.7815   -1.6894    1.0790 F         1 <0>        -0.1697
     43 F3         -3.9570   -3.9016    1.6219 F         1 <0>        -0.1670
     44 H3         -2.5173   -3.9608   -7.1488 H         1 <0>         0.1069
     45 H4         -1.2844   -3.1140   -6.1539 H         1 <0>         0.0562
     46 H5         -2.9799   -3.2339   -5.5726 H         1 <0>         0.0543
     47 H6         -1.5595   -2.7629   -4.1069 H         1 <0>         0.1336
     48 H7         -0.7826   -2.6179   -1.7759 H         1 <0>         0.1257
     49 H8         -0.4163   -6.8640   -1.6191 H         1 <0>         0.1416
     50 H9         -1.0222   -9.3268   -3.8935 H         1 <0>         0.1073
     51 H10        -1.5239   -8.4611   -2.4017 H         1 <0>         0.0582
     52 H11         0.1718   -8.3415   -2.9823 H         1 <0>         0.0582
     53 H12        -1.9237   -5.3043    0.7522 H         1 <0>         0.1252
     54 H13        -0.8988   -4.3024    1.8349 H         1 <0>         0.1066
     55 H14         1.8522   -0.7925   -0.1951 H         1 <0>         0.1652
     56 H15        -1.3096    4.1602    0.7895 H         1 <0>         0.0969
     57 H16         0.0276    3.9248   -0.3865 H         1 <0>         0.1394
     58 H17        -1.9314    5.2412   -1.3426 H         1 <0>         0.1466
     59 H18        -1.5778    3.7303   -2.2474 H         1 <0>         0.1325
     60 H19        -4.4127    1.8805   -0.9002 H         1 <0>         0.1428
     61 H20        -2.9927    1.8188   -1.9986 H         1 <0>         0.1299
     62 H21        -2.4567    0.5573    0.0435 H         1 <0>         0.1812
     63 H22        -2.9411    1.9472    1.0731 H         1 <0>         0.0936
     64 H23        -4.0028    3.8144   -2.9917 H         1 <0>         0.1310
     65 H24        -3.0762    6.0279   -2.3163 H         1 <0>         0.0955
     66 H25        -4.9825    7.4500   -3.0518 H         1 <0>         0.0853
     67 H26        -4.8721    5.9531   -4.0386 H         1 <0>         0.0746
     68 H27        -7.2238    6.4114   -3.3623 H         1 <0>         0.0876
     69 H28        -6.7113    7.6389   -1.2578 H         1 <0>         0.0734
     70 H29        -7.8434    6.2777   -0.9546 H         1 <0>         0.0733
     71 H30        -6.0473    6.3529    0.7679 H         1 <0>         0.0885
     72 H31        -3.6957    5.8942    0.0914 H         1 <0>         0.0565
     73 H32        -4.2981    7.4158   -0.6492 H         1 <0>         0.0938
     74 H33        -5.2707    4.0012    0.5133 H         1 <0>         0.0557
     75 H34        -7.0055    4.1616    0.0757 H         1 <0>         0.0945
     76 H35        -5.7832    2.7736   -1.5912 H         1 <0>         0.0940
     77 H36        -7.6899    4.1958   -2.3270 H         1 <0>         0.0852
     78 H37        -6.4472    4.0598   -3.6169 H         1 <0>         0.0746
     79 H38         1.9330   -3.6481    0.0648 H         1 <0>         0.4595
     80 H39        -3.5966    4.0159   -0.0349 H         1 <0>         0.4322
@<TRIPOS>BOND
     1    1    2 1
     2    1   44 1
     3    1   45 1
     4    1   46 1
     5    2    3 1
     6    3    8 ar
     7    3    4 ar
     8    4    5 ar
     9    4   47 1
    10    5    6 ar
    11    5   48 1
    12    6    7 ar
    13    6   11 1
    14    7    8 ar
    15    7   49 1
    16    8    9 1
    17    9   10 1
    18   10   50 1
    19   10   51 1
    20   10   52 1
    21   11   12 1
    22   11   39 1
    23   11   13 1
    24   13   14 1
    25   13   53 1
    26   13   54 1
    27   14   15 1
    28   14   16 1
    29   14   40 1
    30   16   20 1
    31   16   17 1
    32   17   18 2
    33   17   39 1
    34   18   19 1
    35   18   55 1
    36   19   20 2
    37   19   21 1
    38   21   22 2
    39   21   23 am
    40   23   28 1
    41   23   24 1
    42   24   25 1
    43   24   56 1
    44   24   57 1
    45   25   26 1
    46   25   58 1
    47   25   59 1
    48   26   27 1
    49   26   29 1
    50   26   80 1
    51   27   28 1
    52   27   60 1
    53   27   61 1
    54   28   62 1
    55   28   63 1
    56   29   37 1
    57   29   30 1
    58   29   64 1
    59   30   35 1
    60   30   31 1
    61   30   65 1
    62   31   32 1
    63   31   66 1
    64   31   67 1
    65   32   38 1
    66   32   33 1
    67   32   68 1
    68   33   34 1
    69   33   69 1
    70   33   70 1
    71   34   35 1
    72   34   36 1
    73   34   71 1
    74   35   72 1
    75   35   73 1
    76   36   37 1
    77   36   74 1
    78   36   75 1
    79   37   38 1
    80   37   76 1
    81   38   77 1
    82   38   78 1
    83   39   79 1
    84   40   41 1
    85   40   42 1
    86   40   43 1
@<TRIPOS>MOLECULE
ZINC38884774
   67    71     0     0     0
SMALL
USER_CHARGES

@<TRIPOS>ATOM
      1 C1         -0.3777    1.4756    0.2871 C.3       1 <0>        -0.1878
      2 C2         -0.1555   -0.0326    0.1570 C.3       1 <0>         0.1508
      3 H1         -1.0936   -0.5571    0.3389 H         1 <0>         0.0775
      4 C3          0.3497   -0.3576   -1.2522 C.3       1 <0>        -0.1289
      5 C4          0.7018   -1.8448   -1.3331 C.3       1 <0>        -0.1204
      6 C5          1.8178   -2.1615   -0.3349 C.3       1 <0>        -0.1333
      7 C6          1.3292   -1.8570    1.0847 C.3       1 <0>         0.1142
      8 N1          0.8502   -0.4685    1.1354 N.pl3     1 <0>        -0.9907
      9 S1          1.4359    0.5858    2.2701 S.o2      1 <0>         2.6849
     10 O1          2.6423    0.0210    2.7649 O.2       1 <0>        -0.9515
     11 O2          1.3840    1.8805    1.6867 O.2       1 <0>        -0.9430
     12 C7          0.2952    0.5925    3.6130 C.ar      1 <0>        -0.6500
     13 C8         -0.7603    1.4872    3.6156 C.ar      1 <0>        -0.0308
     14 C9         -1.6573    1.4973    4.6637 C.ar      1 <0>        -0.0743
     15 C10        -1.4982    0.6024    5.7231 C.ar      1 <0>        -0.0873
     16 C11        -0.4312   -0.2976    5.7141 C.ar      1 <0>        -0.1052
     17 C12         0.4555   -0.3008    4.6574 C.ar      1 <0>        -0.0250
     18 C13        -2.4552    0.6080    6.8496 C.2       1 <0>         0.5606
     19 O3         -3.3833    1.3932    6.8549 O.2       1 <0>        -0.5045
     20 N2         -2.2989   -0.2575    7.8709 N.am      1 <0>        -0.6636
     21 C14        -3.2576   -0.3186    8.8898 C.ar      1 <0>         0.1622
     22 C15        -3.5606   -1.5330    9.5012 C.ar      1 <0>        -0.1172
     23 C16        -4.4873   -1.6191   10.4926 C.ar      1 <0>        -0.0498
     24 C17        -5.1814   -0.4717   10.9409 C.ar      1 <0>         0.0957
     25 C18        -4.8545    0.7466   10.3035 C.ar      1 <0>        -0.1309
     26 C19        -3.9145    0.8320    9.3076 C.ar      1 <0>        -0.0609
     27 S2         -5.9151    1.9054   11.1333 S.3       1 <0>         0.0115
     28 C20        -6.7006    0.7406   12.2380 C.2       1 <0>         0.3826
     29 N3         -6.1234   -0.3917   11.9079 N.2       1 <0>        -0.5543
     30 N4         -7.6682    0.9724   13.1951 N.pl3     1 <0>        -0.5853
     31 C21        -8.2028    2.3247   13.4183 C.3       1 <0>         0.1050
     32 C22        -9.7332    2.2521   13.3941 C.3       1 <0>        -0.0219
     33 N5        -10.1902    1.2516   14.3668 N.4       1 <0>        -0.3857
     34 C23        -9.7251   -0.0828   13.9678 C.3       1 <0>        -0.0221
     35 C24        -8.1984   -0.1268   14.0165 C.3       1 <0>         0.1064
     36 C25       -11.6581    1.2602   14.4224 C.3       1 <0>        -0.0471
     37 H2          0.5068    2.0050   -0.0673 H         1 <0>         0.0982
     38 H3         -1.2405    1.7687   -0.3109 H         1 <0>         0.0729
     39 H4         -0.5574    1.7276    1.3322 H         1 <0>         0.0621
     40 H5         -0.4288   -0.1280   -1.9797 H         1 <0>         0.0780
     41 H6          1.2366    0.2385   -1.4672 H         1 <0>         0.0720
     42 H7         -0.1793   -2.4401   -1.0938 H         1 <0>         0.0646
     43 H8          1.0384   -2.0839   -2.3419 H         1 <0>         0.0688
     44 H9          2.0842   -3.2158   -0.4095 H         1 <0>         0.0790
     45 H10         2.6908   -1.5485   -0.5585 H         1 <0>         0.0703
     46 H11         0.5135   -2.5322    1.3432 H         1 <0>         0.0711
     47 H12         2.1506   -1.9862    1.7895 H         1 <0>         0.0967
     48 H13        -0.8820    2.1793    2.7956 H         1 <0>         0.1560
     49 H14        -2.4805    2.1964    4.6647 H         1 <0>         0.1496
     50 H15        -0.3024   -0.9924    6.5309 H         1 <0>         0.1378
     51 H16         1.2792   -0.9993    4.6472 H         1 <0>         0.1503
     52 H17        -1.5223   -0.8379    7.9002 H         1 <0>         0.4179
     53 H18        -3.0475   -2.4274    9.1801 H         1 <0>         0.1425
     54 H19        -4.6965   -2.5777   10.9438 H         1 <0>         0.1405
     55 H20        -3.6909    1.7841    8.8494 H         1 <0>         0.1521
     56 H21        -7.8690    2.6952   14.3875 H         1 <0>         0.1055
     57 H22        -7.8552    2.9908   12.6287 H         1 <0>         0.1257
     58 H23       -10.1474    3.2265   13.6531 H         1 <0>         0.1500
     59 H24       -10.0678    1.9683   12.3963 H         1 <0>         0.1368
     60 H25       -10.1333   -0.8289   14.6495 H         1 <0>         0.1481
     61 H26       -10.0600   -0.2959   12.9527 H         1 <0>         0.1348
     62 H27        -7.8478   -1.0807   13.6223 H         1 <0>         0.1380
     63 H28        -7.8641   -0.0081   15.0472 H         1 <0>         0.0976
     64 H29       -12.0604    1.0210   13.4380 H         1 <0>         0.1227
     65 H30       -11.9987    0.5178   15.1442 H         1 <0>         0.1271
     66 H31       -12.0044    2.2480   14.7262 H         1 <0>         0.1269
     67 H32        -9.8202    1.4768   15.2781 H         1 <0>         0.4267
@<TRIPOS>BOND
     1    1    2 1
     2    1   37 1
     3    1   38 1
     4    1   39 1
     5    2    3 1
     6    2    8 1
     7    2    4 1
     8    4    5 1
     9    4   40 1
    10    4   41 1
    11    5    6 1
    12    5   42 1
    13    5   43 1
    14    6    7 1
    15    6   44 1
    16    6   45 1
    17    7    8 1
    18    7   46 1
    19    7   47 1
    20    8    9 1
    21    9   10 2
    22    9   11 2
    23    9   12 1
    24   12   17 ar
    25   12   13 ar
    26   13   14 ar
    27   13   48 1
    28   14   15 ar
    29   14   49 1
    30   15   16 ar
    31   15   18 1
    32   16   17 ar
    33   16   50 1
    34   17   51 1
    35   18   19 2
    36   18   20 am
    37   20   21 1
    38   20   52 1
    39   21   26 ar
    40   21   22 ar
    41   22   23 ar
    42   22   53 1
    43   23   24 ar
    44   23   54 1
    45   24   29 1
    46   24   25 ar
    47   25   26 ar
    48   25   27 1
    49   26   55 1
    50   27   28 1
    51   28   29 2
    52   28   30 1
    53   30   35 1
    54   30   31 1
    55   31   32 1
    56   31   56 1
    57   31   57 1
    58   32   33 1
    59   32   58 1
    60   32   59 1
    61   33   34 1
    62   33   36 1
    63   33   67 1
    64   34   35 1
    65   34   60 1
    66   34   61 1
    67   35   62 1
    68   35   63 1
    69   36   64 1
    70   36   65 1
    71   36   66 1
@<TRIPOS>MOLECULE
ZINC39686562
   66    69     0     0     0
SMALL
USER_CHARGES

@<TRIPOS>ATOM
      1 C1          2.3305    2.4006    0.2011 C.3       1 <0>        -0.1627
      2 C2          1.3175    1.9936   -0.8709 C.3       1 <0>         0.1469
      3 H1          0.5667    1.3373   -0.4308 H         1 <0>         0.0964
      4 C3          0.6366    3.2443   -1.4303 C.3       1 <0>        -0.0783
      5 C4         -0.4462    2.8373   -2.3962 C.ar      1 <0>        -0.1210
      6 C5         -0.1771    2.7739   -3.7499 C.ar      1 <0>        -0.0817
      7 C6         -1.1702    2.4011   -4.6365 C.ar      1 <0>        -0.1552
      8 C7         -2.4348    2.0904   -4.1712 C.ar      1 <0>        -0.0777
      9 C8         -2.7087    2.1518   -2.8188 C.ar      1 <0>        -0.2034
     10 C9         -1.7123    2.5206   -1.9263 C.ar      1 <0>         0.1342
     11 O1         -1.9778    2.5764   -0.5947 O.3       1 <0>        -0.3146
     12 C10        -3.3033    2.2369   -0.1827 C.3       1 <0>         0.0254
     13 N1          2.0085    1.2883   -1.9531 N.am      1 <0>        -0.7174
     14 C11         2.2412   -0.0355   -1.8541 C.2       1 <0>         0.5218
     15 O2          1.8786   -0.6429   -0.8690 O.2       1 <0>        -0.5215
     16 C12         2.9521   -0.7610   -2.9673 C.3       1 <0>        -0.1144
     17 H2          2.7661   -0.2668   -3.9209 H         1 <0>         0.1115
     18 C13         2.4940   -2.2355   -3.0272 C.3       1 <0>         0.1001
     19 N2          3.7191   -2.9945   -3.3722 N.am      1 <0>        -0.6179
     20 C14         4.7946   -2.3307   -2.5971 C.3       1 <0>         0.1115
     21 C15         4.4622   -0.8278   -2.6844 C.3       1 <0>        -0.0718
     22 C16         5.2426   -0.1801   -3.8242 C.3       1 <0>        -0.1344
     23 C17         6.7375   -0.2081   -3.4935 C.3       1 <0>        -0.0114
     24 N3          6.9762    0.5140   -2.2379 N.4       1 <0>        -0.5043
     25 C18         6.2969   -0.1688   -1.1303 C.3       1 <0>        -0.0082
     26 C19         4.7834   -0.1395   -1.3613 C.3       1 <0>        -0.1477
     27 C20         3.8305   -4.0499   -4.2030 C.2       1 <0>         0.5877
     28 O3          4.8940   -4.6287   -4.3111 O.2       1 <0>        -0.5000
     29 C21         2.6599   -4.5034   -4.9824 C.ar      1 <0>        -0.1205
     30 C22         1.3798   -4.4358   -4.4288 C.ar      1 <0>        -0.0817
     31 C23         0.2911   -4.8605   -5.1609 C.ar      1 <0>        -0.1050
     32 C24         0.4636   -5.3536   -6.4426 C.ar      1 <0>        -0.0692
     33 C25         1.7286   -5.4246   -6.9990 C.ar      1 <0>        -0.0388
     34 C26         2.8283   -4.9963   -6.2784 C.ar      1 <0>         0.0134
     35 Cl1         4.4143   -5.0783   -6.9794 Cl        1 <0>        -0.0172
     36 Cl2         1.9344   -6.0457   -8.6070 Cl        1 <0>        -0.0295
     37 H3          2.8156    1.5096    0.5996 H         1 <0>         0.0598
     38 H4          3.0813    3.0569   -0.2391 H         1 <0>         0.0546
     39 H5          1.8163    2.9254    1.0063 H         1 <0>         0.0736
     40 H6          0.1979    3.8158   -0.6124 H         1 <0>         0.0956
     41 H7          1.3735    3.8583   -1.9482 H         1 <0>         0.0758
     42 H8          0.8097    3.0161   -4.1158 H         1 <0>         0.1216
     43 H9         -0.9580    2.3528   -5.6944 H         1 <0>         0.1240
     44 H10        -3.2090    1.7997   -4.8658 H         1 <0>         0.1263
     45 H11        -3.6965    1.9090   -2.4559 H         1 <0>         0.1299
     46 H12        -4.0149    2.9163   -0.6519 H         1 <0>         0.0580
     47 H13        -3.5261    1.2131   -0.4831 H         1 <0>         0.0568
     48 H14        -3.3799    2.3223    0.9013 H         1 <0>         0.1039
     49 H15         2.2986    1.7741   -2.7410 H         1 <0>         0.3970
     50 H16         2.1101   -2.5538   -2.0580 H         1 <0>         0.1040
     51 H17         1.7357   -2.3667   -3.7991 H         1 <0>         0.0994
     52 H18         4.7780   -2.6653   -1.5598 H         1 <0>         0.0873
     53 H19         5.7670   -2.5311   -3.0469 H         1 <0>         0.0906
     54 H20         5.0637   -0.7316   -4.7472 H         1 <0>         0.1181
     55 H21         4.9165    0.8526   -3.9477 H         1 <0>         0.0969
     56 H22         7.0663   -1.2417   -3.3860 H         1 <0>         0.1342
     57 H23         7.2965    0.2688   -4.2986 H         1 <0>         0.1399
     58 H24         7.9677    0.5468   -2.0536 H         1 <0>         0.4343
     59 H25         6.6364   -1.2034   -1.0787 H         1 <0>         0.1334
     60 H26         6.5311    0.3370   -0.1936 H         1 <0>         0.1393
     61 H27         4.4406    0.8946   -1.3964 H         1 <0>         0.0988
     62 H28         4.2809   -0.6626   -0.5476 H         1 <0>         0.1271
     63 H29         1.2426   -4.0518   -3.4288 H         1 <0>         0.1464
     64 H30        -0.6990   -4.8086   -4.7328 H         1 <0>         0.1499
     65 H31        -0.3929   -5.6847   -7.0110 H         1 <0>         0.1526
     66 H32         6.6208    1.4548   -2.3198 H         1 <0>         0.4274
@<TRIPOS>BOND
     1    1    2 1
     2    1   37 1
     3    1   38 1
     4    1   39 1
     5    2    3 1
     6    2    4 1
     7    2   13 1
     8    4    5 1
     9    4   40 1
    10    4   41 1
    11    5   10 ar
    12    5    6 ar
    13    6    7 ar
    14    6   42 1
    15    7    8 ar
    16    7   43 1
    17    8    9 ar
    18    8   44 1
    19    9   10 ar
    20    9   45 1
    21   10   11 1
    22   11   12 1
    23   12   46 1
    24   12   47 1
    25   12   48 1
    26   13   14 am
    27   13   49 1
    28   14   15 2
    29   14   16 1
    30   16   17 1
    31   16   21 1
    32   16   18 1
    33   18   19 1
    34   18   50 1
    35   18   51 1
    36   19   20 1
    37   19   27 am
    38   20   21 1
    39   20   52 1
    40   20   53 1
    41   21   26 1
    42   21   22 1
    43   22   23 1
    44   22   54 1
    45   22   55 1
    46   23   24 1
    47   23   56 1
    48   23   57 1
    49   24   25 1
    50   24   58 1
    51   24   66 1
    52   25   26 1
    53   25   59 1
    54   25   60 1
    55   26   61 1
    56   26   62 1
    57   27   28 2
    58   27   29 1
    59   29   34 ar
    60   29   30 ar
    61   30   31 ar
    62   30   63 1
    63   31   32 ar
    64   31   64 1
    65   32   33 ar
    66   32   65 1
    67   33   34 ar
    68   33   36 1
    69   34   35 1
@<TRIPOS>MOLECULE
ZINC63375301
   64    70     0     0     0
SMALL
USER_CHARGES

@<TRIPOS>ATOM
      1 C1         -0.0167    1.3781    0.0096 C.ar      1 <0>        -0.0953
      2 C2          1.1709    2.0855    0.0021 C.ar      1 <0>        -0.1104
      3 C3          2.3773    1.4107   -0.0130 C.ar      1 <0>        -0.0993
      4 C4          2.3960    0.0285   -0.0201 C.ar      1 <0>        -0.1342
      5 C5          1.2084   -0.6789   -0.0117 C.ar      1 <0>        -0.0942
      6 C6          0.0021   -0.0041    0.0020 C.ar      1 <0>        -0.1111
      7 C7          3.7112   -0.7071   -0.0376 C.3       1 <0>         0.2503
      8 H1          4.5084   -0.0490    0.3080 H         1 <0>         0.1160
      9 C8          4.0173   -1.1952   -1.4601 C.3       1 <0>         0.0866
     10 H2          3.1213   -1.6013   -1.9297 H         1 <0>         0.1824
     11 C9          5.0989   -2.2612   -1.3465 C.2       1 <0>         0.0712
     12 C10         6.1124   -1.8492   -2.1013 C.ar      1 <0>        -0.1595
     13 C11         7.4020   -2.4755   -2.4334 C.ar      1 <0>         0.0065
     14 C12         8.2265   -1.7572   -3.2410 C.ar      1 <0>        -0.1601
     15 C13         7.9003   -0.4944   -3.7452 C.ar      1 <0>         0.0607
     16 C14         6.7346    0.1537   -3.4961 C.ar      1 <0>        -0.2078
     17 C15         5.7840   -0.5034   -2.6615 C.ar      1 <0>         0.3393
     18 N1          4.5906   -0.1221   -2.2770 N.pl3     1 <0>        -0.5781
     19 C16         4.9689   -3.4785   -0.4613 C.3       1 <0>        -0.0849
     20 C17         3.6765   -3.2918    0.3518 C.3       1 <0>         0.0869
     21 H3          2.7950   -3.5443   -0.2375 H         1 <0>         0.1464
     22 N2          3.6321   -1.8917    0.8263 N.am      1 <0>        -0.6277
     23 C18         3.5317   -1.9361    2.1608 C.2       1 <0>         0.7321
     24 O1          3.3618   -0.9572    2.8607 O.2       1 <0>        -0.5085
     25 N3          3.6408   -3.1846    2.6355 N.am      1 <0>        -0.5242
     26 C19         3.7469   -4.1085    1.6240 C.2       1 <0>         0.5479
     27 O2          3.8769   -5.3102    1.7164 O.2       1 <0>        -0.4306
     28 C20         3.6337   -3.5110    3.9933 C.ar      1 <0>         0.1783
     29 C21         2.4372   -3.7975    4.6351 C.ar      1 <0>        -0.1028
     30 C22         2.4321   -4.1205    5.9774 C.ar      1 <0>        -0.0757
     31 C23         3.6177   -4.1614    6.6930 C.ar      1 <0>        -0.1026
     32 C24         4.8152   -3.8793    6.0717 C.ar      1 <0>        -0.0763
     33 C25         4.8360   -3.5566    4.7130 C.ar      1 <0>        -0.1229
     34 C26         6.1154   -3.2595    4.0403 C.2       1 <0>         0.5730
     35 O3          6.1289   -2.9741    2.8585 O.2       1 <0>        -0.5466
     36 N4          7.2689   -3.3044    4.7359 N.am      1 <0>        -0.7187
     37 C27         8.5390   -3.0094    4.0681 C.3       1 <0>         0.2101
     38 C28         9.6674   -3.1282    5.0598 C.2       1 <0>        -0.0559
     39 C29        10.3718   -4.2442    5.3200 C.2       1 <0>        -0.1730
     40 C30        11.3246   -3.9061    6.3084 C.2       1 <0>        -0.2180
     41 C31        11.1455   -2.6037    6.5930 C.2       1 <0>        -0.0188
     42 O4         10.1443   -2.1363    5.8295 O.3       1 <0>        -0.1717
     43 H4         -0.9591    1.9053    0.0259 H         1 <0>         0.1322
     44 H5          1.1563    3.1654    0.0076 H         1 <0>         0.1327
     45 H6          3.3051    1.9634   -0.0196 H         1 <0>         0.1237
     46 H7          1.2231   -1.7588   -0.0176 H         1 <0>         0.1197
     47 H8         -0.9258   -0.5567    0.0082 H         1 <0>         0.1315
     48 H9          7.6777   -3.4495   -2.0569 H         1 <0>         0.1717
     49 H10         9.1826   -2.1835   -3.5064 H         1 <0>         0.1566
     50 H11         8.6256   -0.0013   -4.3755 H         1 <0>         0.1594
     51 H12         6.5348    1.1295   -3.9136 H         1 <0>         0.1706
     52 H13         4.8992   -4.3787   -1.0720 H         1 <0>         0.1509
     53 H14         5.8256   -3.5460    0.2092 H         1 <0>         0.1430
     54 H15         1.5088   -3.7673    4.0841 H         1 <0>         0.1370
     55 H16         1.4984   -4.3423    6.4727 H         1 <0>         0.1442
     56 H17         3.6035   -4.4151    7.7426 H         1 <0>         0.1436
     57 H18         5.7368   -3.9118    6.6339 H         1 <0>         0.1369
     58 H19         7.2581   -3.5321    5.6788 H         1 <0>         0.4070
     59 H20         8.6946   -3.7175    3.2541 H         1 <0>         0.1007
     60 H21         8.5122   -1.9959    3.6678 H         1 <0>         0.0857
     61 H22        10.2353   -5.2129    4.8623 H         1 <0>         0.1520
     62 H23        12.0557   -4.5669    6.7503 H         1 <0>         0.1546
     63 H24        11.7132   -2.0302    7.3107 H         1 <0>         0.2088
     64 H25         4.1594    0.7202   -2.4902 H         1 <0>         0.4587
@<TRIPOS>BOND
     1    1    6 ar
     2    1    2 ar
     3    1   43 1
     4    2    3 ar
     5    2   44 1
     6    3    4 ar
     7    3   45 1
     8    4    5 ar
     9    4    7 1
    10    5    6 ar
    11    5   46 1
    12    6   47 1
    13    7    8 1
    14    7   22 1
    15    7    9 1
    16    9   10 1
    17    9   18 1
    18    9   11 1
    19   11   12 2
    20   11   19 1
    21   12   17 ar
    22   12   13 ar
    23   13   14 ar
    24   13   48 1
    25   14   15 ar
    26   14   49 1
    27   15   16 ar
    28   15   50 1
    29   16   17 ar
    30   16   51 1
    31   17   18 2
    32   18   64 1
    33   19   20 1
    34   19   52 1
    35   19   53 1
    36   20   21 1
    37   20   26 1
    38   20   22 1
    39   22   23 am
    40   23   24 2
    41   23   25 am
    42   25   26 am
    43   25   28 1
    44   26   27 2
    45   28   33 ar
    46   28   29 ar
    47   29   30 ar
    48   29   54 1
    49   30   31 ar
    50   30   55 1
    51   31   32 ar
    52   31   56 1
    53   32   33 ar
    54   32   57 1
    55   33   34 1
    56   34   35 2
    57   34   36 am
    58   36   37 1
    59   36   58 1
    60   37   38 1
    61   37   59 1
    62   37   60 1
    63   38   42 1
    64   38   39 2
    65   39   40 1
    66   39   61 1
    67   40   41 2
    68   40   62 1
    69   41   42 1
    70   41   63 1
@<TRIPOS>MOLECULE
ZINC01380905
   61    66     0     0     0
SMALL
USER_CHARGES
N'-benzyl-N-(2-fluorophenyl)-oxo-(2-thienylmethyl)BLAHdicarboxamide
@<TRIPOS>ATOM
      1 C1         -3.7303    9.2352   -4.6234 C.ar      1 <0>        -0.1099
      2 C2         -2.9282    8.6150   -5.5630 C.ar      1 <0>        -0.1211
      3 C3         -2.2165    7.4798   -5.2229 C.ar      1 <0>        -0.1006
      4 C4         -2.3069    6.9648   -3.9433 C.ar      1 <0>        -0.1122
      5 C5         -3.1131    7.5820   -3.0052 C.ar      1 <0>        -0.0991
      6 C6         -3.8207    8.7202   -3.3437 C.ar      1 <0>        -0.1210
      7 C7         -1.5313    5.7270   -3.5727 C.3       1 <0>         0.1644
      8 N1         -0.2134    6.1114   -3.0611 N.am      1 <0>        -0.7211
      9 C8          0.6587    5.1631   -2.6655 C.2       1 <0>         0.5024
     10 O1          0.3525    3.9915   -2.7329 O.2       1 <0>        -0.4896
     11 C9          2.0144    5.5584   -2.1393 C.3       1 <0>         0.1463
     12 H1          1.9375    6.4536   -1.5222 H         1 <0>         0.1258
     13 C10         2.9740    5.7792   -3.2665 C.3       1 <0>         0.1043
     14 C11         2.6066    6.3444   -4.5916 C.2       1 <0>        -0.1432
     15 C12         3.7886    6.5916   -5.1700 C.2       1 <0>        -0.1705
     16 C13         4.8783    6.2069   -4.1628 C.3       1 <0>         0.0960
     17 H2          5.8406    6.6994   -4.3024 H         1 <0>         0.1521
     18 O2          4.1819    6.4969   -2.8967 O.3       1 <0>        -0.3283
     19 C14         4.9090    4.6454   -4.1012 C.3       1 <0>        -0.1192
     20 H3          5.7016    4.2968   -3.4392 H         1 <0>         0.1348
     21 C15         3.5219    4.3256   -3.5155 C.3       1 <0>        -0.1396
     22 H4          2.9021    3.7421   -4.1962 H         1 <0>         0.1546
     23 C16         3.5407    3.7862   -2.1126 C.2       1 <0>         0.5527
     24 O3          4.2644    2.9000   -1.7104 O.2       1 <0>        -0.5022
     25 N2          2.6174    4.4452   -1.3675 N.am      1 <0>        -0.5964
     26 C17         2.2682    4.1064    0.0143 C.3       1 <0>         0.2145
     27 C18         1.1340    3.1142    0.0170 C.2       1 <0>        -0.1675
     28 C19         1.1847    1.7597   -0.0006 C.2       1 <0>        -0.1302
     29 C20         0.0018    1.0445    0.0058 C.2       1 <0>        -0.1576
     30 C21        -1.1739    1.7188    0.0238 C.2       1 <0>        -0.1677
     31 S1         -0.6251    3.4175    0.0436 S.3       1 <0>         0.0515
     32 C22         5.0615    4.0545   -5.4791 C.2       1 <0>         0.5336
     33 O4          4.1962    3.3334   -5.9290 O.2       1 <0>        -0.5000
     34 N3          6.1595    4.3273   -6.2116 N.am      1 <0>        -0.6643
     35 C23         6.3570    3.6883   -7.4420 C.ar      1 <0>         0.1179
     36 C24         5.7660    2.4568   -7.6891 C.ar      1 <0>        -0.1056
     37 C25         5.9579    1.8315   -8.9059 C.ar      1 <0>        -0.1055
     38 C26         6.7471    2.4248   -9.8740 C.ar      1 <0>        -0.1077
     39 C27         7.3427    3.6486   -9.6306 C.ar      1 <0>        -0.1318
     40 C28         7.1503    4.2832   -8.4168 C.ar      1 <0>         0.0663
     41 F1          7.7325    5.4788   -8.1786 F         1 <0>        -0.1380
     42 H5         -4.2867   10.1219   -4.8892 H         1 <0>         0.1238
     43 H6         -2.8579    9.0171   -6.5628 H         1 <0>         0.1245
     44 H7         -1.5901    6.9950   -5.9571 H         1 <0>         0.1235
     45 H8         -3.1871    7.1772   -2.0067 H         1 <0>         0.1244
     46 H9         -4.4477    9.2046   -2.6097 H         1 <0>         0.1248
     47 H10        -1.4095    5.0972   -4.4539 H         1 <0>         0.0782
     48 H11        -2.0727    5.1756   -2.8040 H         1 <0>         0.0801
     49 H12         0.0315    7.0484   -3.0072 H         1 <0>         0.4025
     50 H13         1.6187    6.5154   -4.9931 H         1 <0>         0.1624
     51 H14         3.9452    6.9885   -6.1622 H         1 <0>         0.1552
     52 H15         1.9626    5.0090    0.5436 H         1 <0>         0.0966
     53 H16         3.1344    3.6695    0.5112 H         1 <0>         0.1124
     54 H17         2.1350    1.2471   -0.0189 H         1 <0>         0.1302
     55 H18         0.0142   -0.0353   -0.0078 H         1 <0>         0.1310
     56 H19        -2.1813    1.3294    0.0265 H         1 <0>         0.1825
     57 H20         6.8130    4.9662   -5.8865 H         1 <0>         0.4152
     58 H21         5.1530    1.9900   -6.9324 H         1 <0>         0.1547
     59 H22         5.4946    0.8753   -9.0995 H         1 <0>         0.1347
     60 H23         6.8989    1.9309  -10.8224 H         1 <0>         0.1353
     61 H24         7.9588    4.1092  -10.3887 H         1 <0>         0.1405
@<TRIPOS>BOND
     1    1    6 ar
     2    1    2 ar
     3    1   42 1
     4    2    3 ar
     5    2   43 1
     6    3    4 ar
     7    3   44 1
     8    4    5 ar
     9    4    7 1
    10    5    6 ar
    11    5   45 1
    12    6   46 1
    13    7    8 1
    14    7   47 1
    15    7   48 1
    16    8    9 am
    17    8   49 1
    18    9   10 2
    19    9   11 1
    20   11   12 1
    21   11   25 1
    22   11   13 1
    23   13   18 1
    24   13   21 1
    25   13   14 1
    26   14   15 2
    27   14   50 1
    28   15   16 1
    29   15   51 1
    30   16   17 1
    31   16   18 1
    32   16   19 1
    33   19   20 1
    34   19   21 1
    35   19   32 1
    36   21   22 1
    37   21   23 1
    38   23   24 2
    39   23   25 am
    40   25   26 1
    41   26   27 1
    42   26   52 1
    43   26   53 1
    44   27   31 1
    45   27   28 2
    46   28   29 1
    47   28   54 1
    48   29   30 2
    49   29   55 1
    50   30   31 1
    51   30   56 1
    52   32   33 2
    53   32   34 am
    54   34   35 1
    55   34   57 1
    56   35   40 ar
    57   35   36 ar
    58   36   37 ar
    59   36   58 1
    60   37   38 ar
    61   37   59 1
    62   38   39 ar
    63   38   60 1
    64   39   40 ar
    65   39   61 1
    66   40   41 1
@<TRIPOS>MOLECULE
ZINC06146150
   57    60     0     0     0
SMALL
USER_CHARGES
ethyl 2-[[2-[(4-fluorophenyl)sulfonylamino]benzoyl]amino]-4,5,6,7-tetrahydrobenzothiophene-3-carboxylate
@<TRIPOS>ATOM
      1 C1         -3.5478   -2.0866   -3.3122 C.3       1 <0>        -0.1554
      2 C2         -3.4406   -1.7047   -1.8345 C.3       1 <0>         0.0558
      3 O1         -3.1048   -0.2966   -1.7216 O.3       1 <0>        -0.3502
      4 C3         -2.9722    0.2033   -0.4758 C.2       1 <0>         0.5317
      5 O2         -3.1331   -0.5189    0.4897 O.2       1 <0>        -0.4943
      6 C4         -2.6346    1.6152   -0.2857 C.2       1 <0>        -0.2099
      7 C5         -3.6696    2.6293   -0.1705 C.2       1 <0>        -0.0616
      8 C6         -3.2216    3.8923   -0.0048 C.2       1 <0>        -0.2067
      9 S1         -1.4570    3.7495    0.0070 S.3       1 <0>         0.2408
     10 C7         -1.3132    2.0359   -0.2055 C.2       1 <0>         0.0867
     11 N1         -0.1607    1.2720   -0.2826 N.am      1 <0>        -0.6279
     12 C8          1.0471    1.8636   -0.1941 C.2       1 <0>         0.5702
     13 O3          1.1247    3.0676   -0.0415 O.2       1 <0>        -0.5043
     14 C9          2.2737    1.0514   -0.2823 C.ar      1 <0>        -0.1697
     15 C10         2.1896   -0.3326   -0.4577 C.ar      1 <0>        -0.0573
     16 C11         3.3398   -1.0860   -0.5393 C.ar      1 <0>        -0.1423
     17 C12         4.5827   -0.4791   -0.4484 C.ar      1 <0>        -0.0475
     18 C13         4.6827    0.8860   -0.2753 C.ar      1 <0>        -0.1924
     19 C14         3.5339    1.6637   -0.1965 C.ar      1 <0>         0.2389
     20 N2          3.6320    3.0387   -0.0284 N.pl3     1 <0>        -1.0566
     21 S2          4.8630    3.8759   -0.7537 S.o2      1 <0>         2.6927
     22 O4          4.6174    5.2537   -0.5075 O.2       1 <0>        -0.9398
     23 O5          6.0718    3.2366   -0.3672 O.2       1 <0>        -0.9476
     24 C15         4.7012    3.6382   -2.4921 C.ar      1 <0>        -0.6936
     25 C16         5.3417    2.5785   -3.1069 C.ar      1 <0>         0.0117
     26 C17         5.2116    2.3884   -4.4696 C.ar      1 <0>        -0.1746
     27 C18         4.4480    3.2658   -5.2207 C.ar      1 <0>         0.1613
     28 C19         3.8113    4.3298   -4.6046 C.ar      1 <0>        -0.1745
     29 C20         3.9385    4.5149   -3.2410 C.ar      1 <0>         0.0175
     30 F1          4.3240    3.0836   -6.5536 F         1 <0>        -0.1268
     31 C21        -4.0487    5.1329    0.1361 C.3       1 <0>        -0.0375
     32 C22        -5.4827    4.8115   -0.3095 C.3       1 <0>        -0.1149
     33 C23        -5.9283    3.5100    0.3633 C.3       1 <0>        -0.1188
     34 C24        -5.1619    2.3277   -0.2325 C.3       1 <0>        -0.0648
     35 H1         -3.8022   -3.1534   -3.3977 H         1 <0>         0.0830
     36 H2         -2.5854   -1.8981   -3.8104 H         1 <0>         0.0672
     37 H3         -4.3329   -1.4829   -3.7909 H         1 <0>         0.0688
     38 H4         -4.4030   -1.8932   -1.3363 H         1 <0>         0.0731
     39 H5         -2.6555   -2.3084   -1.3558 H         1 <0>         0.0712
     40 H6         -0.2310    0.1824   -0.4161 H         1 <0>         0.4430
     41 H7          1.2239   -0.8108   -0.5295 H         1 <0>         0.1270
     42 H8          3.2730   -2.1553   -0.6752 H         1 <0>         0.1368
     43 H9          5.4786   -1.0786   -0.5140 H         1 <0>         0.1405
     44 H10         5.6549    1.3511   -0.2054 H         1 <0>         0.1718
     45 H11         2.8919    3.5717    0.5866 H         1 <0>         0.4698
     46 H12         5.9406    1.8967   -2.5215 H         1 <0>         0.1507
     47 H13         5.7087    1.5581   -4.9490 H         1 <0>         0.1486
     48 H14         3.2151    5.0146   -5.1894 H         1 <0>         0.1489
     49 H15         3.4417    5.3446   -2.7602 H         1 <0>         0.1528
     50 H16        -4.0449    5.4588    1.1867 H         1 <0>         0.0847
     51 H17        -3.6272    5.9284   -0.4960 H         1 <0>         0.0832
     52 H18        -6.1517    5.6327   -0.0126 H         1 <0>         0.0759
     53 H19        -5.5093    4.6940   -1.4029 H         1 <0>         0.0695
     54 H20        -5.7254    3.5672    1.4429 H         1 <0>         0.0687
     55 H21        -7.0062    3.3632    0.2001 H         1 <0>         0.0721
     56 H22        -5.4625    2.1781   -1.2800 H         1 <0>         0.0805
     57 H23        -5.3760    1.4158    0.3442 H         1 <0>         0.0736
@<TRIPOS>BOND
     1    1    2 1
     2    1   35 1
     3    1   36 1
     4    1   37 1
     5    2    3 1
     6    2   38 1
     7    2   39 1
     8    3    4 1
     9    4    5 2
    10    4    6 1
    11    6   10 2
    12    6    7 1
    13    7   34 1
    14    7    8 2
    15    8    9 1
    16    8   31 1
    17    9   10 1
    18   10   11 1
    19   11   12 am
    20   11   40 1
    21   12   13 2
    22   12   14 1
    23   14   19 ar
    24   14   15 ar
    25   15   16 ar
    26   15   41 1
    27   16   17 ar
    28   16   42 1
    29   17   18 ar
    30   17   43 1
    31   18   19 ar
    32   18   44 1
    33   19   20 1
    34   20   21 1
    35   20   45 1
    36   21   22 2
    37   21   23 2
    38   21   24 1
    39   24   29 ar
    40   24   25 ar
    41   25   26 ar
    42   25   46 1
    43   26   27 ar
    44   26   47 1
    45   27   28 ar
    46   27   30 1
    47   28   29 ar
    48   28   48 1
    49   29   49 1
    50   31   32 1
    51   31   50 1
    52   31   51 1
    53   32   33 1
    54   32   52 1
    55   32   53 1
    56   33   34 1
    57   33   54 1
    58   33   55 1
    59   34   56 1
    60   34   57 1
@<TRIPOS>MOLECULE
ZINC35300569
   58    60     0     0     0
SMALL
USER_CHARGES

@<TRIPOS>ATOM
      1 C1         -1.5922    1.5366    1.6438 C.3       1 <0>        -0.1548
      2 C2         -1.9457    0.0655    1.4156 C.3       1 <0>        -0.1099
      3 C3         -0.9337   -0.5587    0.4528 C.3       1 <0>        -0.0981
      4 H1         -0.8970    0.0270   -0.4658 H         1 <0>         0.0859
      5 C4          0.4502   -0.5715    1.1051 C.3       1 <0>        -0.1538
      6 C5         -1.3571   -1.9924    0.1268 C.3       1 <0>         0.1427
      7 H2         -2.3793   -1.9922   -0.2516 H         1 <0>         0.1211
      8 C6         -0.4344   -2.5633   -0.9189 C.2       1 <0>         0.5114
      9 O1          0.4619   -3.3126   -0.5930 O.2       1 <0>        -0.4590
     10 N1         -0.6051   -2.2412   -2.2165 N.am      1 <0>        -0.6074
     11 C7          0.3039   -2.6873   -3.1687 C.2       1 <0>         0.2726
     12 N2          1.3904   -3.4345   -3.0253 N.2       1 <0>        -0.2686
     13 N3          2.1152   -3.7530   -4.0072 N.2       1 <0>        -0.2646
     14 C8          1.8334   -3.3591   -5.2433 C.2       1 <0>         0.1296
     15 S1          0.3374   -2.4236   -4.9393 S.3       1 <0>        -0.0116
     16 C9          2.5477   -3.6226   -6.5100 C.ar      1 <0>        -0.0844
     17 C10         2.0649   -3.0936   -7.7086 C.ar      1 <0>        -0.0339
     18 C11         2.7332   -3.3411   -8.8879 C.ar      1 <0>        -0.1991
     19 C12         3.8869   -4.1172   -8.8854 C.ar      1 <0>         0.2415
     20 C13         4.3700   -4.6458   -7.6934 C.ar      1 <0>        -0.2025
     21 C14         3.7100   -4.3964   -6.5098 C.ar      1 <0>        -0.0121
     22 N4          4.5611   -4.3664  -10.0815 N.pl3     1 <0>        -0.6299
     23 C15         4.1039   -3.7399  -11.3243 C.3       1 <0>         0.0871
     24 C16         5.7261   -5.2546  -10.0944 C.3       1 <0>         0.0832
     25 N5         -1.2858   -2.8104    1.3401 N.am      1 <0>        -0.7083
     26 C17        -2.3250   -2.8358    2.1978 C.2       1 <0>         0.5664
     27 O2         -3.3216   -2.1800    1.9647 O.2       1 <0>        -0.5211
     28 C18        -2.2530   -3.6611    3.4218 C.ar      1 <0>        -0.1227
     29 C19        -1.1076   -4.4110    3.6951 C.ar      1 <0>        -0.0784
     30 C20        -1.0464   -5.1791    4.8388 C.ar      1 <0>        -0.0970
     31 C21        -2.1181   -5.2076    5.7153 C.ar      1 <0>        -0.0656
     32 C22        -3.2570   -4.4660    5.4497 C.ar      1 <0>        -0.0985
     33 C23        -3.3279   -3.6895    4.3122 C.ar      1 <0>        -0.0506
     34 Br1        -2.0262   -6.2641    7.2810 Br        1 <0>        -0.0381
     35 H3         -2.3132    1.9813    2.3297 H         1 <0>         0.0562
     36 H4         -0.5921    1.6078    2.0714 H         1 <0>         0.0548
     37 H5         -1.6195    2.0685    0.6928 H         1 <0>         0.0532
     38 H6         -1.9184   -0.4664    2.3666 H         1 <0>         0.0658
     39 H7         -2.9458   -0.0057    0.9880 H         1 <0>         0.0744
     40 H8          0.3922   -1.0743    2.0705 H         1 <0>         0.0608
     41 H9          1.1508   -1.1022    0.4605 H         1 <0>         0.0576
     42 H10         0.7934    0.4530    1.2491 H         1 <0>         0.0656
     43 H11        -1.3623   -1.6980   -2.4858 H         1 <0>         0.4311
     44 H12         1.1685   -2.4913   -7.7113 H         1 <0>         0.1260
     45 H13         2.3602   -2.9322   -9.8153 H         1 <0>         0.1330
     46 H14         5.2662   -5.2486   -7.6947 H         1 <0>         0.1350
     47 H15         4.0886   -4.8029   -5.5837 H         1 <0>         0.1380
     48 H16         4.6053   -2.7807  -11.4535 H         1 <0>         0.0535
     49 H17         4.3400   -4.3897  -12.1670 H         1 <0>         0.0705
     50 H18         3.0263   -3.5831  -11.2772 H         1 <0>         0.0722
     51 H19         5.8548   -5.6995   -9.1076 H         1 <0>         0.0813
     52 H20         5.5737   -6.0431  -10.8313 H         1 <0>         0.0612
     53 H21         6.6167   -4.6821  -10.3537 H         1 <0>         0.0572
     54 H22        -0.4905   -3.3338    1.5261 H         1 <0>         0.4122
     55 H23        -0.2712   -4.3898    3.0121 H         1 <0>         0.1371
     56 H24        -0.1610   -5.7599    5.0512 H         1 <0>         0.1418
     57 H25        -4.0898   -4.4926    6.1369 H         1 <0>         0.1425
     58 H26        -4.2149   -3.1081    4.1084 H         1 <0>         0.1478
@<TRIPOS>BOND
     1    1    2 1
     2    1   35 1
     3    1   36 1
     4    1   37 1
     5    2    3 1
     6    2   38 1
     7    2   39 1
     8    3    4 1
     9    3    5 1
    10    3    6 1
    11    5   40 1
    12    5   41 1
    13    5   42 1
    14    6    7 1
    15    6    8 1
    16    6   25 1
    17    8    9 2
    18    8   10 am
    19   10   11 1
    20   10   43 1
    21   11   15 1
    22   11   12 2
    23   12   13 1
    24   13   14 2
    25   14   15 1
    26   14   16 1
    27   16   21 ar
    28   16   17 ar
    29   17   18 ar
    30   17   44 1
    31   18   19 ar
    32   18   45 1
    33   19   20 ar
    34   19   22 1
    35   20   21 ar
    36   20   46 1
    37   21   47 1
    38   22   23 1
    39   22   24 1
    40   23   48 1
    41   23   49 1
    42   23   50 1
    43   24   51 1
    44   24   52 1
    45   24   53 1
    46   25   26 am
    47   25   54 1
    48   26   27 2
    49   26   28 1
    50   28   33 ar
    51   28   29 ar
    52   29   30 ar
    53   29   55 1
    54   30   31 ar
    55   30   56 1
    56   31   32 ar
    57   31   34 1
    58   32   33 ar
    59   32   57 1
    60   33   58 1
@<TRIPOS>MOLECULE
ZINC08692066
   69    73     0     0     0
SMALL
USER_CHARGES

@<TRIPOS>ATOM
      1 C1         -0.2231    0.9718    0.5581 C.3       1 <0>        -0.1578
      2 C2         -0.1948   -0.5266    0.3997 C.2       1 <0>         0.1486
      3 N1         -0.2113   -1.2906    1.4490 N.2       1 <0>        -0.2395
      4 N2         -0.2554   -0.7221    2.7287 N.am      1 <0>        -0.5796
      5 C3         -0.2725   -1.5153    3.8182 C.2       1 <0>         0.5115
      6 O1         -0.2497   -2.7215    3.6908 O.2       1 <0>        -0.4842
      7 C4         -0.3199   -0.9039    5.1948 C.3       1 <0>         0.1249
      8 H1         -1.1748   -0.2312    5.2643 H         1 <0>         0.0973
      9 C5          0.9492   -0.1307    5.4450 C.ar      1 <0>        -0.0979
     10 C6          2.1033   -0.7969    5.8126 C.ar      1 <0>        -0.0814
     11 C7          3.2675   -0.0877    6.0421 C.ar      1 <0>        -0.1188
     12 C8          3.2776    1.2876    5.9037 C.ar      1 <0>        -0.1088
     13 C9          2.1238    1.9537    5.5352 C.ar      1 <0>        -0.1190
     14 C10         0.9607    1.2441    5.3015 C.ar      1 <0>        -0.1108
     15 O2         -0.4475   -1.9390    6.1717 O.3       1 <0>        -0.3480
     16 C11        -1.7997   -2.2768    6.4872 C.3       1 <0>         0.0258
     17 C12        -0.1484   -1.1247   -0.9466 C.ar      1 <0>        -0.1041
     18 C13        -0.1247   -0.3054   -2.0791 C.ar      1 <0>        -0.0451
     19 C14        -0.0885   -0.8678   -3.3340 C.ar      1 <0>        -0.1969
     20 C15        -0.0714   -2.2510   -3.4894 C.ar      1 <0>         0.2338
     21 C16        -0.0826   -3.0717   -2.3533 C.ar      1 <0>        -0.1408
     22 C17        -0.1220   -2.5136   -1.0978 C.ar      1 <0>        -0.0237
     23 C18        -0.0241   -4.5343   -2.5677 C.3       1 <0>        -0.0378
     24 H2          1.0157   -4.8103   -2.7432 H         1 <0>         0.0959
     25 C19        -0.5970   -5.4940   -1.5891 C.2       1 <0>        -0.1460
     26 C20        -1.0242   -6.5655   -2.2462 C.2       1 <0>        -0.1705
     27 C21        -0.7947   -6.3841   -3.7479 C.3       1 <0>        -0.0931
     28 C22        -0.8247   -4.8582   -3.8647 C.3       1 <0>        -0.1017
     29 H3         -1.8396   -4.4627   -3.8254 H         1 <0>         0.1014
     30 C23        -0.0185   -4.2527   -4.9995 C.3       1 <0>         0.1987
     31 H4         -0.4731   -4.5009   -5.9586 H         1 <0>         0.1071
     32 N3         -0.0559   -2.7907   -4.7796 N.pl3     1 <0>        -0.7383
     33 C24         1.4024   -4.7526   -4.9531 C.ar      1 <0>        -0.0627
     34 C25         1.7466   -5.9127   -5.6241 C.ar      1 <0>        -0.1229
     35 C26         3.0453   -6.3760   -5.5858 C.ar      1 <0>        -0.0515
     36 C27         4.0136   -5.6713   -4.8678 C.ar      1 <0>        -0.1249
     37 C28         3.6594   -4.5014   -4.1929 C.ar      1 <0>        -0.0604
     38 C29         2.3582   -4.0464   -4.2443 C.ar      1 <0>        -0.1157
     39 C30         5.4064   -6.1617   -4.8219 C.2       1 <0>         0.5065
     40 O3          5.7114   -7.1800   -5.4097 O.2       1 <0>        -0.5025
     41 O4          6.3381   -5.4795   -4.1282 O.3       1 <0>        -0.3494
     42 C31         7.6645   -6.0112   -4.1270 C.3       1 <0>         0.0341
     43 H5          0.7972    1.3494    0.6244 H         1 <0>         0.0876
     44 H6         -0.7208    1.4187   -0.3025 H         1 <0>         0.0897
     45 H7         -0.7662    1.2309    1.4669 H         1 <0>         0.0666
     46 H8         -0.2736    0.2423    2.8307 H         1 <0>         0.3836
     47 H9          2.0954   -1.8715    5.9208 H         1 <0>         0.1307
     48 H10         4.1690   -0.6082    6.3300 H         1 <0>         0.1271
     49 H11         4.1870    1.8418    6.0837 H         1 <0>         0.1257
     50 H12         2.1316    3.0283    5.4274 H         1 <0>         0.1276
     51 H13         0.0601    1.7642    5.0100 H         1 <0>         0.1240
     52 H14        -1.8110   -3.0694    7.2354 H         1 <0>         0.0964
     53 H15        -2.3113   -1.3984    6.8807 H         1 <0>         0.0466
     54 H16        -2.3081   -2.6203    5.5863 H         1 <0>         0.0477
     55 H17        -0.1353    0.7689   -1.9687 H         1 <0>         0.1287
     56 H18        -0.0735   -0.2307   -4.2060 H         1 <0>         0.1258
     57 H19        -0.1372   -3.1505   -0.2257 H         1 <0>         0.1339
     58 H20        -0.6558   -5.3450   -0.5211 H         1 <0>         0.1314
     59 H21        -1.4680   -7.4370   -1.7881 H         1 <0>         0.1290
     60 H22         0.1682   -6.7970   -4.0487 H         1 <0>         0.0868
     61 H23        -1.6060   -6.8296   -4.3237 H         1 <0>         0.0745
     62 H24        -0.0699   -2.1947   -5.5448 H         1 <0>         0.4044
     63 H25         0.9966   -6.4569   -6.1789 H         1 <0>         0.1366
     64 H26         3.3126   -7.2818   -6.1098 H         1 <0>         0.1401
     65 H27         4.4034   -3.9518   -3.6354 H         1 <0>         0.1387
     66 H28         2.0838   -3.1392   -3.7264 H         1 <0>         0.1355
     67 H29         8.3134   -5.3675   -3.5332 H         1 <0>         0.1048
     68 H30         7.6540   -7.0127   -3.6969 H         1 <0>         0.0625
     69 H31         8.0377   -6.0591   -5.1500 H         1 <0>         0.0623
@<TRIPOS>BOND
     1    1    2 1
     2    1   43 1
     3    1   44 1
     4    1   45 1
     5    2    3 2
     6    2   17 1
     7    3    4 1
     8    4    5 am
     9    4   46 1
    10    5    6 2
    11    5    7 1
    12    7    8 1
    13    7    9 1
    14    7   15 1
    15    9   14 ar
    16    9   10 ar
    17   10   11 ar
    18   10   47 1
    19   11   12 ar
    20   11   48 1
    21   12   13 ar
    22   12   49 1
    23   13   14 ar
    24   13   50 1
    25   14   51 1
    26   15   16 1
    27   16   52 1
    28   16   53 1
    29   16   54 1
    30   17   22 ar
    31   17   18 ar
    32   18   19 ar
    33   18   55 1
    34   19   20 ar
    35   19   56 1
    36   20   32 1
    37   20   21 ar
    38   21   22 ar
    39   21   23 1
    40   22   57 1
    41   23   24 1
    42   23   28 1
    43   23   25 1
    44   25   26 2
    45   25   58 1
    46   26   27 1
    47   26   59 1
    48   27   28 1
    49   27   60 1
    50   27   61 1
    51   28   29 1
    52   28   30 1
    53   30   31 1
    54   30   32 1
    55   30   33 1
    56   32   62 1
    57   33   38 ar
    58   33   34 ar
    59   34   35 ar
    60   34   63 1
    61   35   36 ar
    62   35   64 1
    63   36   37 ar
    64   36   39 1
    65   37   38 ar
    66   37   65 1
    67   38   66 1
    68   39   40 2
    69   39   41 1
    70   41   42 1
    71   42   67 1
    72   42   68 1
    73   42   69 1
@<TRIPOS>MOLECULE
ZINC63426685
   69    75     0     0     0
SMALL
USER_CHARGES

@<TRIPOS>ATOM
      1 C1          6.3908   -0.0277   -2.3449 C.2       1 <0>        -0.2150
      2 C2          5.3530   -0.4791   -1.4976 C.2       1 <0>        -0.1794
      3 C3          4.7615    0.6164   -0.9881 C.2       1 <0>        -0.0470
      4 O1          5.3826    1.7012   -1.4792 O.3       1 <0>        -0.1716
      5 C4          6.3715    1.3167   -2.3026 C.2       1 <0>        -0.0307
      6 C5          3.5989    0.6249   -0.0294 C.3       1 <0>         0.1984
      7 N1          4.1006    0.6065    1.3469 N.am      1 <0>        -0.6010
      8 C6          4.4913    1.8343    2.0469 C.3       1 <0>         0.1890
      9 H1          5.5712    1.7676    2.1795 H         1 <0>         0.0751
     10 C7          4.2490    3.0741    1.2300 C.3       1 <0>        -0.1238
     11 C8          3.0668    3.8890    1.7480 C.3       1 <0>        -0.1178
     12 C9          3.3373    4.2357    3.2195 C.3       1 <0>        -0.1216
     13 C10         3.1513    2.9571    4.0377 C.3       1 <0>        -0.0590
     14 C11         3.9094    1.8352    3.4226 C.2       1 <0>        -0.1553
     15 C12         4.0522    0.7172    4.1407 C.2       1 <0>         0.0822
     16 C13         4.7679   -0.4370    3.4667 C.3       1 <0>        -0.1172
     17 H2          4.5744   -1.3604    4.0125 H         1 <0>         0.1493
     18 C14         4.2265   -0.5540    2.0543 C.2       1 <0>         0.5354
     19 O2          3.9239   -1.6266    1.5759 O.2       1 <0>        -0.5018
     20 C15         6.2501   -0.1669    3.4308 C.2       1 <0>         0.5289
     21 O3          6.6912    0.8592    3.9036 O.2       1 <0>        -0.4702
     22 N2          7.0856   -1.0657    2.8734 N.am      1 <0>        -0.6055
     23 C16         8.4527   -0.8166    2.8403 C.2       1 <0>         0.2424
     24 N3          9.4085   -1.5679    2.3381 N.2       1 <0>        -0.5374
     25 H3          6.7328   -1.8864    2.4953 H         1 <0>         0.4277
     26 C17        10.6717   -1.1871    2.3855 C.2       1 <0>         0.1031
     27 C18        10.9338    0.0065    2.9724 C.2       1 <0>        -0.2738
     28 S1          9.2861    0.5229    3.4266 S.3       1 <0>         0.2124
     29 C19        11.7733   -2.0415    1.8131 C.3       1 <0>         0.0227
     30 C20        12.2525   -1.4378    0.4915 C.3       1 <0>        -0.0956
     31 C21        13.3709   -2.3053   -0.0896 C.3       1 <0>        -0.0847
     32 C22        12.8430   -3.7199   -0.3368 C.3       1 <0>        -0.1086
     33 C23        12.3637   -4.3236    0.9848 C.3       1 <0>        -0.0893
     34 C24        11.2453   -3.4561    1.5659 C.3       1 <0>        -0.0857
     35 C25        13.5308   -4.3801    1.9726 C.3       1 <0>        -0.1092
     36 C26        14.0587   -2.9656    2.2198 C.3       1 <0>        -0.0848
     37 C27        14.5380   -2.3618    0.8982 C.3       1 <0>        -0.1090
     38 C28        12.9403   -2.0981    2.8009 C.3       1 <0>        -0.0984
     39 O4          3.5807    0.6200    5.4091 O.3       1 <0>        -0.4520
     40 H4          7.0716   -0.6440   -2.9134 H         1 <0>         0.1485
     41 H5          5.0859   -1.5064   -1.2981 H         1 <0>         0.1487
     42 H6          7.0384    1.9751   -2.8394 H         1 <0>         0.2036
     43 H7          3.0043    1.5248   -0.1873 H         1 <0>         0.1056
     44 H8          2.9791   -0.2550   -0.2020 H         1 <0>         0.1210
     45 H9          5.1445    3.6950    1.2564 H         1 <0>         0.0810
     46 H10         4.0529    2.7842    0.1977 H         1 <0>         0.0835
     47 H11         2.9675    4.8052    1.1659 H         1 <0>         0.0710
     48 H12         2.1520    3.3014    1.6701 H         1 <0>         0.0663
     49 H13         4.3580    4.6012    3.3317 H         1 <0>         0.0682
     50 H14         2.6323    4.9958    3.5560 H         1 <0>         0.0694
     51 H15         3.5027    3.1270    5.0554 H         1 <0>         0.0787
     52 H16         2.0932    2.6964    4.0620 H         1 <0>         0.0732
     53 H17        11.8785    0.5084    3.1208 H         1 <0>         0.1937
     54 H18        11.4211   -1.3975   -0.2122 H         1 <0>         0.0623
     55 H19        12.6287   -0.4300    0.6676 H         1 <0>         0.0634
     56 H20        13.7124   -1.8752   -1.0312 H         1 <0>         0.0713
     57 H21        12.0116   -3.6796   -1.0405 H         1 <0>         0.0610
     58 H22        13.6397   -4.3378   -0.7508 H         1 <0>         0.0620
     59 H23        11.9876   -5.3314    0.8087 H         1 <0>         0.0698
     60 H24        10.9039   -3.8862    2.5074 H         1 <0>         0.0603
     61 H25        10.4139   -3.4158    0.8622 H         1 <0>         0.0689
     62 H26        13.1893   -4.8102    2.9141 H         1 <0>         0.0611
     63 H27        14.3275   -4.9981    1.5586 H         1 <0>         0.0622
     64 H28        14.8901   -3.0059    2.9235 H         1 <0>         0.0721
     65 H29        15.3347   -2.9798    0.4842 H         1 <0>         0.0632
     66 H30        14.9141   -1.3541    1.0743 H         1 <0>         0.0624
     67 H31        13.3164   -1.0903    2.9770 H         1 <0>         0.0651
     68 H32        12.5989   -2.5282    3.7424 H         1 <0>         0.0637
     69 H33         3.7443   -0.2376    5.8249 H         1 <0>         0.3977
@<TRIPOS>BOND
     1    1    5 2
     2    1    2 1
     3    1   40 1
     4    2    3 2
     5    2   41 1
     6    3    4 1
     7    3    6 1
     8    4    5 1
     9    5   42 1
    10    6    7 1
    11    6   43 1
    12    6   44 1
    13    7   18 am
    14    7    8 1
    15    8    9 1
    16    8   14 1
    17    8   10 1
    18   10   11 1
    19   10   45 1
    20   10   46 1
    21   11   12 1
    22   11   47 1
    23   11   48 1
    24   12   13 1
    25   12   49 1
    26   12   50 1
    27   13   14 1
    28   13   51 1
    29   13   52 1
    30   14   15 2
    31   15   16 1
    32   15   39 1
    33   16   17 1
    34   16   18 1
    35   16   20 1
    36   18   19 2
    37   20   22 am
    38   20   21 2
    39   22   23 1
    40   22   25 1
    41   23   28 1
    42   23   24 2
    43   24   26 1
    44   26   29 1
    45   26   27 2
    46   27   53 1
    47   27   28 1
    48   29   34 1
    49   29   38 1
    50   29   30 1
    51   30   31 1
    52   30   54 1
    53   30   55 1
    54   31   37 1
    55   31   32 1
    56   31   56 1
    57   32   33 1
    58   32   57 1
    59   32   58 1
    60   33   34 1
    61   33   35 1
    62   33   59 1
    63   34   60 1
    64   34   61 1
    65   35   36 1
    66   35   62 1
    67   35   63 1
    68   36   37 1
    69   36   38 1
    70   36   64 1
    71   37   65 1
    72   37   66 1
    73   38   67 1
    74   38   68 1
    75   39   69 1
@<TRIPOS>MOLECULE
ZINC24986445
   63    67     0     0     0
SMALL
USER_CHARGES

@<TRIPOS>ATOM
      1 C1         -0.0028    1.2872   -0.1650 C.ar      1 <0>        -0.1119
      2 C2          1.2167    1.8132   -0.5485 C.ar      1 <0>        -0.1121
      3 C3          2.3565    1.0337   -0.4850 C.ar      1 <0>        -0.1087
      4 C4          2.2769   -0.2718   -0.0375 C.ar      1 <0>        -0.0754
      5 C5          1.0576   -0.7976    0.3468 C.ar      1 <0>        -0.1041
      6 C6         -0.0824   -0.0185    0.2820 C.ar      1 <0>        -0.1075
      7 C7          3.5193   -1.1220    0.0308 C.3       1 <0>        -0.0824
      8 C8          4.1726   -0.9608    1.4049 C.3       1 <0>         0.1360
      9 H1          4.3421    0.0972    1.6048 H         1 <0>         0.1143
     10 C9          5.4897   -1.6929    1.4239 C.2       1 <0>         0.5194
     11 O1          5.5518   -2.8179    1.8726 O.2       1 <0>        -0.5165
     12 N1          6.5987   -1.0974    0.9423 N.am      1 <0>        -0.6144
     13 C10         6.5633    0.3022    0.4964 C.3       1 <0>         0.0985
     14 C11         7.1048    0.3770   -0.9348 C.3       1 <0>        -0.1664
     15 C12         8.4912   -0.2662   -0.9861 C.3       1 <0>         0.1869
     16 C13         8.3945   -1.7373   -0.5811 C.3       1 <0>        -0.1238
     17 C14         7.8676   -1.8336    0.8589 C.3       1 <0>         0.1101
     18 C15         9.0509   -0.1566   -2.3790 C.2       1 <0>         0.0607
     19 C16        10.0012    0.7372   -2.7372 C.2       1 <0>         0.0460
     20 N2         10.2661    0.5620   -4.0317 N.pl3     1 <0>        -0.4647
     21 C17         9.5168   -0.4054   -4.4950 C.cat     1 <0>         0.2973
     22 N3          8.7435   -0.8779   -3.4892 N.pl3     1 <0>        -0.4954
     23 H2          8.0934   -1.5953   -3.5494 H         1 <0>         0.4645
     24 C18        10.6021    1.7294   -1.7718 C.3       1 <0>        -0.0549
     25 C19         9.6916    1.7988   -0.5381 C.3       1 <0>         0.0478
     26 N4          9.3950    0.4401   -0.0637 N.3       1 <0>        -0.6737
     27 N5          3.2900   -1.5168    2.4335 N.am      1 <0>        -0.7159
     28 C20         2.3047   -0.7606    2.9566 C.2       1 <0>         0.5665
     29 O2          2.1483    0.3828    2.5749 O.2       1 <0>        -0.5073
     30 C21         1.4139   -1.3217    3.9947 C.ar      1 <0>        -0.1322
     31 C22         1.5944   -2.6326    4.4392 C.ar      1 <0>        -0.0733
     32 C23         0.7601   -3.1507    5.4079 C.ar      1 <0>        -0.1176
     33 C24        -0.2546   -2.3743    5.9390 C.ar      1 <0>        -0.0615
     34 C25        -0.4397   -1.0737    5.5025 C.ar      1 <0>        -0.1003
     35 C26         0.3928   -0.5413    4.5382 C.ar      1 <0>        -0.0286
     36 Br1        -1.8304   -0.0218    6.2341 Br        1 <0>        -0.0336
     37 H3         -0.8925    1.8976   -0.2105 H         1 <0>         0.1200
     38 H4          1.2789    2.8332   -0.8981 H         1 <0>         0.1185
     39 H5          3.3091    1.4445   -0.7853 H         1 <0>         0.1100
     40 H6          0.9954   -1.8177    0.6961 H         1 <0>         0.1114
     41 H7         -1.0351   -0.4294    0.5819 H         1 <0>         0.1185
     42 H8          3.2532   -2.1675   -0.1246 H         1 <0>         0.0843
     43 H9          4.2187   -0.8062   -0.7433 H         1 <0>         0.0793
     44 H10         5.5363    0.6667    0.5181 H         1 <0>         0.1054
     45 H11         7.1835    0.9111    1.1541 H         1 <0>         0.0798
     46 H12         6.4317   -0.1556   -1.6067 H         1 <0>         0.0840
     47 H13         7.1762    1.4202   -1.2426 H         1 <0>         0.0926
     48 H14         7.7134   -2.2562   -1.2556 H         1 <0>         0.0757
     49 H15         9.3818   -2.1957   -0.6372 H         1 <0>         0.0976
     50 H16         8.5909   -1.3940    1.5457 H         1 <0>         0.0844
     51 H17         7.7014   -2.8788    1.1197 H         1 <0>         0.1084
     52 H18         9.5156   -0.7677   -5.5124 H         1 <0>         0.2692
     53 H19        11.5983    1.3998   -1.4768 H         1 <0>         0.1148
     54 H20        10.6619    2.7111   -2.2417 H         1 <0>         0.1068
     55 H21        10.1934    2.3574    0.2520 H         1 <0>         0.1098
     56 H22         8.7611    2.3016   -0.8019 H         1 <0>         0.0555
     57 H23         9.0157    0.4582    0.8711 H         1 <0>         0.3708
     58 H24         3.4147   -2.4293    2.7381 H         1 <0>         0.4100
     59 H25         2.3856   -3.2402    4.0252 H         1 <0>         0.1323
     60 H26         0.8991   -4.1648    5.7524 H         1 <0>         0.1417
     61 H27        -0.9052   -2.7848    6.6969 H         1 <0>         0.1410
     62 H28         0.2510    0.4752    4.2020 H         1 <0>         0.1465
     63 H29        10.9111    1.0704   -4.5478 H         1 <0>         0.4659
@<TRIPOS>BOND
     1    1    6 ar
     2    1    2 ar
     3    1   37 1
     4    2    3 ar
     5    2   38 1
     6    3    4 ar
     7    3   39 1
     8    4    5 ar
     9    4    7 1
    10    5    6 ar
    11    5   40 1
    12    6   41 1
    13    7    8 1
    14    7   42 1
    15    7   43 1
    16    8    9 1
    17    8   10 1
    18    8   27 1
    19   10   11 2
    20   10   12 am
    21   12   17 1
    22   12   13 1
    23   13   14 1
    24   13   44 1
    25   13   45 1
    26   14   15 1
    27   14   46 1
    28   14   47 1
    29   15   26 1
    30   15   16 1
    31   15   18 1
    32   16   17 1
    33   16   48 1
    34   16   49 1
    35   17   50 1
    36   17   51 1
    37   18   22 1
    38   18   19 2
    39   19   20 1
    40   19   24 1
    41   20   21 2
    42   20   63 1
    43   21   22 1
    44   21   52 1
    45   22   23 1
    46   24   25 1
    47   24   53 1
    48   24   54 1
    49   25   26 1
    50   25   55 1
    51   25   56 1
    52   26   57 1
    53   27   28 am
    54   27   58 1
    55   28   29 2
    56   28   30 1
    57   30   35 ar
    58   30   31 ar
    59   31   32 ar
    60   31   59 1
    61   32   33 ar
    62   32   60 1
    63   33   34 ar
    64   33   61 1
    65   34   35 ar
    66   34   36 1
    67   35   62 1
@<TRIPOS>MOLECULE
ZINC39656082
   67    71     0     0     0
SMALL
USER_CHARGES

@<TRIPOS>ATOM
      1 C1         -2.1415    5.4582   -5.9729 C.3       1 <0>        -0.1134
      2 C2         -2.5977    4.0550   -6.2794 C.ar      1 <0>        -0.1045
      3 C3         -3.8812    3.6571   -5.9323 C.ar      1 <0>        -0.0939
      4 C4         -4.3181    2.3787   -6.2031 C.ar      1 <0>        -0.1240
      5 C5         -3.4663    1.4761   -6.8309 C.ar      1 <0>         0.0905
      6 N1         -3.6001    0.1640   -7.2267 N.pl3     1 <0>        -0.5932
      7 C6         -2.4396   -0.2667   -7.8097 C.2       1 <0>         0.0633
      8 C7         -1.5340    0.7242   -7.8135 C.2       1 <0>        -0.1819
      9 C8         -2.1662    1.8845   -7.1811 C.ar      1 <0>        -0.0964
     10 C9         -1.7461    3.1862   -6.9019 C.ar      1 <0>        -0.0768
     11 C10        -0.1326    0.6557   -8.3635 C.3       1 <0>        -0.0473
     12 C11         0.8424    0.3162   -7.2343 C.3       1 <0>         0.1219
     13 N2          2.2047    0.2496   -7.7690 N.am      1 <0>        -0.7309
     14 C12         3.2365   -0.0370   -6.9507 C.2       1 <0>         0.5117
     15 O1          3.0372   -0.2398   -5.7717 O.2       1 <0>        -0.5109
     16 C13         4.6379   -0.1055   -7.5007 C.3       1 <0>        -0.1144
     17 H1          4.7321    0.5343   -8.3781 H         1 <0>         0.1169
     18 C14         5.6609    0.3098   -6.4198 C.3       1 <0>         0.1221
     19 N3          6.1037   -0.9676   -5.8129 N.am      1 <0>        -0.6151
     20 C15         6.2101   -1.9026   -6.9586 C.3       1 <0>         0.0976
     21 C16         5.0040   -1.5567   -7.8543 C.3       1 <0>        -0.0717
     22 C17         5.3922   -1.6602   -9.3261 C.3       1 <0>        -0.1346
     23 C18         5.6953   -3.1218   -9.6679 C.3       1 <0>        -0.0101
     24 N4          4.5119   -3.9459   -9.3941 N.4       1 <0>        -0.5047
     25 C19         4.2011   -3.9148   -7.9598 C.3       1 <0>        -0.0096
     26 C20         3.8347   -2.4868   -7.5458 C.3       1 <0>        -0.1475
     27 C21         6.3537   -1.2218   -4.5132 C.2       1 <0>         0.5992
     28 O2          6.1261   -0.3724   -3.6726 O.2       1 <0>        -0.4881
     29 C22         6.9015   -2.5260   -4.1112 C.2       1 <0>        -0.1830
     30 C23         7.7918   -3.2116   -4.9087 C.2       1 <0>        -0.2199
     31 S1          8.1245   -4.6128   -4.0483 S.3       1 <0>         0.2732
     32 C24         7.1071   -4.3476   -2.6125 C.2       1 <0>        -0.1830
     33 C25         6.5363   -3.1466   -2.8583 C.2       1 <0>         0.1247
     34 O3          5.6704   -2.5625   -1.9846 O.3       1 <0>        -0.2975
     35 C26         4.2838   -2.8698   -2.1423 C.3       1 <0>         0.0408
     36 Cl1         6.9023   -5.3771   -1.2298 Cl        1 <0>         0.0418
     37 H2         -1.6869    5.4843   -4.9826 H         1 <0>         0.0695
     38 H3         -1.4099    5.7731   -6.7169 H         1 <0>         0.0645
     39 H4         -2.9978    6.1322   -5.9975 H         1 <0>         0.0672
     40 H5         -4.5442    4.3565   -5.4448 H         1 <0>         0.1281
     41 H6         -5.3185    2.0784   -5.9284 H         1 <0>         0.1225
     42 H7         -2.2763   -1.2572   -8.2079 H         1 <0>         0.1667
     43 H8         -4.3981   -0.3748   -7.1091 H         1 <0>         0.4182
     44 H9         -0.7502    3.5041   -7.1730 H         1 <0>         0.1187
     45 H10        -0.0812   -0.1155   -9.1321 H         1 <0>         0.0717
     46 H11         0.1350    1.6193   -8.7971 H         1 <0>         0.0774
     47 H12         0.7910    1.0873   -6.4657 H         1 <0>         0.0735
     48 H13         0.5748   -0.6474   -6.8007 H         1 <0>         0.0680
     49 H14         2.3641    0.4118   -8.7120 H         1 <0>         0.3985
     50 H15         6.5055    0.8273   -6.8747 H         1 <0>         0.0885
     51 H16         5.1858    0.9422   -5.6698 H         1 <0>         0.1015
     52 H17         7.1429   -1.7386   -7.4981 H         1 <0>         0.0869
     53 H18         6.1451   -2.9348   -6.6144 H         1 <0>         0.0854
     54 H19         4.5687   -1.3050   -9.9455 H         1 <0>         0.0989
     55 H20         6.2772   -1.0519   -9.5126 H         1 <0>         0.1229
     56 H21         5.9569   -3.2012  -10.7231 H         1 <0>         0.1410
     57 H22         6.5298   -3.4713   -9.0599 H         1 <0>         0.1319
     58 H23         3.7259   -3.5870   -9.9151 H         1 <0>         0.4287
     59 H24         3.3611   -4.5788   -7.7559 H         1 <0>         0.1386
     60 H25         5.0711   -4.2454   -7.3925 H         1 <0>         0.1317
     61 H26         3.6215   -2.4612   -6.4772 H         1 <0>         0.1230
     62 H27         2.9548   -2.1615   -8.1008 H         1 <0>         0.0975
     63 H28         8.1855   -2.9147   -5.8696 H         1 <0>         0.1975
     64 H29         3.9534   -2.5596   -3.1337 H         1 <0>         0.0446
     65 H30         4.1344   -3.9435   -2.0290 H         1 <0>         0.0482
     66 H31         3.7059   -2.3406   -1.3847 H         1 <0>         0.1032
     67 H32         4.6934   -4.8973   -9.6770 H         1 <0>         0.4342
@<TRIPOS>BOND
     1    1   37 1
     2    1   38 1
     3    1   39 1
     4    1    2 1
     5    2    3 ar
     6    2   10 ar
     7    3    4 ar
     8    3   40 1
     9    4    5 ar
    10    4   41 1
    11    5    6 1
    12    5    9 ar
    13    6   43 1
    14    6    7 1
    15    7    8 2
    16    7   42 1
    17    8    9 1
    18    8   11 1
    19    9   10 ar
    20   10   44 1
    21   11   12 1
    22   11   45 1
    23   11   46 1
    24   12   13 1
    25   12   47 1
    26   12   48 1
    27   13   14 am
    28   13   49 1
    29   14   15 2
    30   14   16 1
    31   16   17 1
    32   16   21 1
    33   16   18 1
    34   18   19 1
    35   18   50 1
    36   18   51 1
    37   19   20 1
    38   19   27 am
    39   20   21 1
    40   20   52 1
    41   20   53 1
    42   21   26 1
    43   21   22 1
    44   22   23 1
    45   22   54 1
    46   22   55 1
    47   23   24 1
    48   23   56 1
    49   23   57 1
    50   24   25 1
    51   24   58 1
    52   24   67 1
    53   25   26 1
    54   25   59 1
    55   25   60 1
    56   26   61 1
    57   26   62 1
    58   27   28 2
    59   27   29 1
    60   29   33 1
    61   29   30 2
    62   30   31 1
    63   30   63 1
    64   31   32 1
    65   32   33 2
    66   32   36 1
    67   33   34 1
    68   34   35 1
    69   35   64 1
    70   35   65 1
    71   35   66 1
@<TRIPOS>MOLECULE
ZINC39678284
   78    82     0     0     0
SMALL
USER_CHARGES

@<TRIPOS>ATOM
      1 C1          1.4497   -2.9300   -0.7771 C.3       1 <0>        -0.1490
      2 C2          2.0539   -1.5347   -0.6068 C.3       1 <0>         0.0761
      3 H1          2.7740   -1.3508   -1.4041 H         1 <0>         0.0901
      4 C3          0.9585   -0.5017   -0.6711 C.2       1 <0>         0.5142
      5 O1          0.6746    0.1433    0.3160 O.2       1 <0>        -0.4885
      6 N1          0.2944   -0.2947   -1.8254 N.am      1 <0>        -0.6167
      7 C4         -0.8646    0.5988   -2.0588 C.3       1 <0>         0.1210
      8 C5         -0.5996    1.2278   -3.4450 C.3       1 <0>        -0.1134
      9 H2         -1.5328    1.3347   -3.9980 H         1 <0>         0.1142
     10 C6          0.3330    0.2327   -4.1557 C.3       1 <0>        -0.0703
     11 C7          0.5623   -0.9046   -3.1499 C.3       1 <0>         0.0983
     12 C8          1.6605    0.9032   -4.4961 C.3       1 <0>        -0.1492
     13 C9          2.5488   -0.0887   -5.2524 C.3       1 <0>        -0.0101
     14 N2          1.8677   -0.5218   -6.4785 N.4       1 <0>        -0.5049
     15 C10         0.6377   -1.2473   -6.1387 C.3       1 <0>        -0.0099
     16 C11        -0.3313   -0.3045   -5.4196 C.3       1 <0>        -0.1347
     17 C12         0.0755    2.5666   -3.2933 C.2       1 <0>         0.5124
     18 O2          0.8467    2.7565   -2.3768 O.2       1 <0>        -0.5118
     19 N3         -0.1779    3.5530   -4.1762 N.am      1 <0>        -0.7191
     20 C13         0.5578    4.8171   -4.0932 C.3       1 <0>         0.1742
     21 C14         0.0067    5.7865   -5.1069 C.ar      1 <0>        -0.1290
     22 C15         0.6731    5.9938   -6.2989 C.ar      1 <0>        -0.0980
     23 C16         0.1684    6.8834   -7.2293 C.ar      1 <0>        -0.1261
     24 C17        -1.0050    7.5682   -6.9703 C.ar      1 <0>        -0.0991
     25 C18        -1.6765    7.3654   -5.7810 C.ar      1 <0>        -0.1261
     26 C19        -1.1750    6.4683   -4.8461 C.ar      1 <0>         0.1955
     27 N4         -1.8544    6.2568   -3.6443 N.pl3     1 <0>        -0.6768
     28 C20        -1.6257    7.1368   -2.4902 C.3       1 <0>         0.1450
     29 C21        -2.9755    7.6757   -2.0059 C.3       1 <0>        -0.1375
     30 C22        -3.9175    6.5027   -1.7250 C.3       1 <0>        -0.1168
     31 C23        -4.1479    5.7112   -3.0144 C.3       1 <0>        -0.1388
     32 C24        -2.8159    5.1537   -3.5120 C.3       1 <0>         0.1539
     33 O3          2.7129   -1.4521    0.6585 O.3       1 <0>        -0.2820
     34 C25         3.7110   -0.5374    0.7758 C.ar      1 <0>         0.1269
     35 C26         3.9857    0.3295   -0.2719 C.ar      1 <0>        -0.2043
     36 C27         5.0006    1.2588   -0.1501 C.ar      1 <0>        -0.0791
     37 C28         5.7426    1.3251    1.0147 C.ar      1 <0>        -0.1526
     38 C29         5.4712    0.4619    2.0602 C.ar      1 <0>        -0.0758
     39 C30         4.4533   -0.4650    1.9456 C.ar      1 <0>        -0.1437
     40 H3          0.7933   -3.1470    0.0656 H         1 <0>         0.0813
     41 H4          0.8763   -2.9671   -1.7033 H         1 <0>         0.0783
     42 H5          2.2492   -3.6700   -0.8149 H         1 <0>         0.0837
     43 H6         -1.7907    0.0242   -2.0731 H         1 <0>         0.0879
     44 H7         -0.9083    1.3727   -1.2924 H         1 <0>         0.0991
     45 H8          1.5919   -1.2581   -3.2047 H         1 <0>         0.0813
     46 H9         -0.1324   -1.7229   -3.3395 H         1 <0>         0.0903
     47 H10         1.4770    1.7772   -5.1211 H         1 <0>         0.0974
     48 H11         2.1591    1.2107   -3.5769 H         1 <0>         0.1246
     49 H12         3.4917    0.3928   -5.5115 H         1 <0>         0.1394
     50 H13         2.7452   -0.9550   -4.6208 H         1 <0>         0.1314
     51 H14         1.6366    0.2864   -7.0367 H         1 <0>         0.4290
     52 H15         0.1720   -1.6197   -7.0512 H         1 <0>         0.1409
     53 H16         0.8795   -2.0862   -5.4862 H         1 <0>         0.1326
     54 H17        -1.2369   -0.8487   -5.1516 H         1 <0>         0.1229
     55 H18        -0.5866    0.5261   -6.0777 H         1 <0>         0.0986
     56 H19        -0.8474    3.4258   -4.8665 H         1 <0>         0.3977
     57 H20         0.4485    5.2361   -3.0930 H         1 <0>         0.0828
     58 H21         1.6131    4.6375   -4.2986 H         1 <0>         0.0673
     59 H22         1.5896    5.4606   -6.5042 H         1 <0>         0.1198
     60 H23         0.6919    7.0441   -8.1602 H         1 <0>         0.1249
     61 H24        -1.3963    8.2626   -7.6991 H         1 <0>         0.1262
     62 H25        -2.5925    7.9007   -5.5792 H         1 <0>         0.1248
     63 H26        -1.1490    6.5722   -1.6889 H         1 <0>         0.0513
     64 H27        -0.9852    7.9678   -2.7856 H         1 <0>         0.0687
     65 H28        -2.8304    8.2526   -1.0925 H         1 <0>         0.0700
     66 H29        -3.4093    8.3146   -2.7752 H         1 <0>         0.0643
     67 H30        -3.4718    5.8510   -0.9736 H         1 <0>         0.0606
     68 H31        -4.8706    6.8825   -1.3568 H         1 <0>         0.0630
     69 H32        -4.8372    4.8898   -2.8188 H         1 <0>         0.0675
     70 H33        -4.5707    6.3685   -3.7742 H         1 <0>         0.0643
     71 H34        -2.9605    4.6768   -4.4814 H         1 <0>         0.0601
     72 H35        -2.4384    4.4238   -2.7959 H         1 <0>         0.0454
     73 H36         3.4068    0.2777   -1.1822 H         1 <0>         0.1129
     74 H37         5.2147    1.9339   -0.9654 H         1 <0>         0.1220
     75 H38         6.5359    2.0520    1.1079 H         1 <0>         0.1267
     76 H39         6.0525    0.5154    2.9688 H         1 <0>         0.1340
     77 H40         4.2388   -1.1361    2.7642 H         1 <0>         0.1340
     78 H41         2.4791   -1.1274   -7.0053 H         1 <0>         0.4344
@<TRIPOS>BOND
     1    1    2 1
     2    1   40 1
     3    1   41 1
     4    1   42 1
     5    2    3 1
     6    2    4 1
     7    2   33 1
     8    4    5 2
     9    4    6 am
    10    6   11 1
    11    6    7 1
    12    7    8 1
    13    7   43 1
    14    7   44 1
    15    8    9 1
    16    8   10 1
    17    8   17 1
    18   10   16 1
    19   10   11 1
    20   10   12 1
    21   11   45 1
    22   11   46 1
    23   12   13 1
    24   12   47 1
    25   12   48 1
    26   13   14 1
    27   13   49 1
    28   13   50 1
    29   14   15 1
    30   14   51 1
    31   14   78 1
    32   15   16 1
    33   15   52 1
    34   15   53 1
    35   16   54 1
    36   16   55 1
    37   17   18 2
    38   17   19 am
    39   19   20 1
    40   19   56 1
    41   20   21 1
    42   20   57 1
    43   20   58 1
    44   21   26 ar
    45   21   22 ar
    46   22   23 ar
    47   22   59 1
    48   23   24 ar
    49   23   60 1
    50   24   25 ar
    51   24   61 1
    52   25   26 ar
    53   25   62 1
    54   26   27 1
    55   27   32 1
    56   27   28 1
    57   28   29 1
    58   28   63 1
    59   28   64 1
    60   29   30 1
    61   29   65 1
    62   29   66 1
    63   30   31 1
    64   30   67 1
    65   30   68 1
    66   31   32 1
    67   31   69 1
    68   31   70 1
    69   32   71 1
    70   32   72 1
    71   33   34 1
    72   34   39 ar
    73   34   35 ar
    74   35   36 ar
    75   35   73 1
    76   36   37 ar
    77   36   74 1
    78   37   38 ar
    79   37   75 1
    80   38   39 ar
    81   38   76 1
    82   39   77 1
@<TRIPOS>MOLECULE
ZINC40826240
   69    72     0     0     0
SMALL
USER_CHARGES

@<TRIPOS>ATOM
      1 C1          0.4248    1.6860    0.0096 C.3       1 <0>        -0.1054
      2 C2          0.3388    0.1815    0.0122 C.2       1 <0>        -0.0168
      3 C3          0.2786   -0.6584   -1.1060 C.2       1 <0>        -0.1568
      4 C4          0.2084   -1.9519   -0.6477 C.2       1 <0>         0.0793
      5 O1          0.2274   -1.9186    0.6834 O.3       1 <0>        -0.1492
      6 C5          0.3100   -0.6370    1.1072 C.2       1 <0>        -0.1205
      7 C6          0.3571   -0.1983    2.5065 C.2       1 <0>         0.6185
      8 O2          0.4284    0.9875    2.7703 O.2       1 <0>        -0.5068
      9 N1          0.3215   -1.1087    3.4997 N.am      1 <0>        -0.7253
     10 C7          0.3686   -0.6696    4.9002 C.3       1 <0>         0.1407
     11 C8          1.8291   -0.5228    5.3317 C.3       1 <0>        -0.1448
     12 C9          1.8952   -0.0779    6.7923 C.3       1 <0>         0.0598
     13 N2          1.1403   -0.9607    7.6691 N.4       1 <0>        -0.4913
     14 C10        -0.2012   -1.3389    7.2545 C.3       1 <0>         0.0626
     15 C11        -0.2881   -1.7302    5.7830 C.3       1 <0>        -0.1414
     16 C12        -1.2206   -0.2392    7.5632 C.3       1 <0>        -0.1759
     17 C13        -0.6110   -2.5794    8.0837 C.3       1 <0>        -0.1803
     18 C14         1.4517    1.3789    6.9217 C.3       1 <0>        -0.1715
     19 C15         3.3779   -0.1459    7.2254 C.3       1 <0>        -0.1797
     20 C16         0.1245   -3.1444   -1.5664 C.3       1 <0>        -0.0470
     21 C17        -0.3788   -2.6939   -2.9403 C.3       1 <0>        -0.1126
     22 C18         0.4722   -1.5372   -3.4750 C.3       1 <0>        -0.1198
     23 C19         0.2837   -0.3415   -2.5528 C.2       1 <0>         0.1796
     24 N3          0.1386    0.8666   -3.0009 N.2       1 <0>        -0.2163
     25 N4          0.1515    1.1082   -4.3808 N.pl3     1 <0>        -0.9642
     26 S1         -0.0339    2.6511   -4.9531 S.o2      1 <0>         2.7157
     27 O3          0.1668    2.5898   -6.3585 O.2       1 <0>        -0.9407
     28 O4         -1.2294    3.1576   -4.3756 O.2       1 <0>        -0.9335
     29 C20         1.2889    3.6125   -4.2969 C.ar      1 <0>        -0.6867
     30 C21         1.1381    4.2577   -3.0836 C.ar      1 <0>         0.0212
     31 C22         2.1751    5.0116   -2.5677 C.ar      1 <0>        -0.1760
     32 C23         3.3654    5.1207   -3.2666 C.ar      1 <0>         0.1611
     33 C24         3.5152    4.4741   -4.4817 C.ar      1 <0>        -0.1754
     34 C25         2.4788    3.7164   -4.9931 C.ar      1 <0>         0.0105
     35 F1          4.3796    5.8579   -2.7634 F         1 <0>        -0.1270
     36 H1          1.4714    1.9901   -0.0074 H         1 <0>         0.0791
     37 H2         -0.0816    2.0774   -0.8727 H         1 <0>         0.0861
     38 H3         -0.0531    2.0788    0.9071 H         1 <0>         0.0882
     39 H4          0.2646   -2.0539    3.2893 H         1 <0>         0.4104
     40 H5         -0.1540    0.2782    4.9912 H         1 <0>         0.1105
     41 H6          2.3398   -1.4803    5.2190 H         1 <0>         0.0925
     42 H7          2.3202    0.2215    4.7025 H         1 <0>         0.1156
     43 H8          1.6858   -1.8145    7.8114 H         1 <0>         0.4247
     44 H9         -1.3373   -1.8398    5.4969 H         1 <0>         0.1175
     45 H10         0.2159   -2.6885    5.6318 H         1 <0>         0.0963
     46 H11        -1.0087    0.6356    6.9486 H         1 <0>         0.0838
     47 H12        -2.2246   -0.6027    7.3442 H         1 <0>         0.1059
     48 H13        -1.1543    0.0322    8.6168 H         1 <0>         0.0838
     49 H14        -0.5964   -2.3285    9.1444 H         1 <0>         0.0850
     50 H15        -1.6155   -2.8918    7.7981 H         1 <0>         0.1074
     51 H16         0.0902   -3.3919    7.8929 H         1 <0>         0.0819
     52 H17         0.4720    1.5028    6.4603 H         1 <0>         0.0841
     53 H18         1.3935    1.6486    7.9762 H         1 <0>         0.0813
     54 H19         2.1734    2.0243    6.4209 H         1 <0>         0.1063
     55 H20         3.9712    0.5172    6.5957 H         1 <0>         0.1068
     56 H21         3.4671    0.1654    8.2661 H         1 <0>         0.0839
     57 H22         3.7408   -1.1683    7.1196 H         1 <0>         0.0811
     58 H23         1.1123   -3.5934   -1.6704 H         1 <0>         0.1056
     59 H24        -0.5659   -3.8772   -1.1487 H         1 <0>         0.1015
     60 H25        -0.3237   -3.5316   -3.6355 H         1 <0>         0.0976
     61 H26        -1.4151   -2.3673   -2.8538 H         1 <0>         0.0790
     62 H27         1.5223   -1.8291   -3.4887 H         1 <0>         0.1015
     63 H28         0.1488   -1.2784   -4.4833 H         1 <0>         0.0872
     64 H29         0.2689    0.3717   -5.0011 H         1 <0>         0.4039
     65 H30         0.2095    4.1727   -2.5388 H         1 <0>         0.1528
     66 H31         2.0570    5.5158   -1.6200 H         1 <0>         0.1481
     67 H32         4.4431    4.5587   -5.0279 H         1 <0>         0.1487
     68 H33         2.5970    3.2083   -5.9387 H         1 <0>         0.1513
     69 H34         1.0813   -0.5233    8.5919 H         1 <0>         0.4267
@<TRIPOS>BOND
     1    1    2 1
     2    1   36 1
     3    1   37 1
     4    1   38 1
     5    2    6 2
     6    2    3 1
     7    3   23 1
     8    3    4 2
     9    4    5 1
    10    4   20 1
    11    5    6 1
    12    6    7 1
    13    7    8 2
    14    7    9 am
    15    9   10 1
    16    9   39 1
    17   10   15 1
    18   10   11 1
    19   10   40 1
    20   11   12 1
    21   11   41 1
    22   11   42 1
    23   12   13 1
    24   12   18 1
    25   12   19 1
    26   13   14 1
    27   13   43 1
    28   13   69 1
    29   14   15 1
    30   14   16 1
    31   14   17 1
    32   15   44 1
    33   15   45 1
    34   16   46 1
    35   16   47 1
    36   16   48 1
    37   17   49 1
    38   17   50 1
    39   17   51 1
    40   18   52 1
    41   18   53 1
    42   18   54 1
    43   19   55 1
    44   19   56 1
    45   19   57 1
    46   20   21 1
    47   20   58 1
    48   20   59 1
    49   21   22 1
    50   21   60 1
    51   21   61 1
    52   22   23 1
    53   22   62 1
    54   22   63 1
    55   23   24 2
    56   24   25 1
    57   25   26 1
    58   25   64 1
    59   26   27 2
    60   26   28 2
    61   26   29 1
    62   29   34 ar
    63   29   30 ar
    64   30   31 ar
    65   30   65 1
    66   31   32 ar
    67   31   66 1
    68   32   33 ar
    69   32   35 1
    70   33   34 ar
    71   33   67 1
    72   34   68 1
@<TRIPOS>MOLECULE
ZINC63480119
   60    66     0     0     0
SMALL
USER_CHARGES

@<TRIPOS>ATOM
      1 C1         -0.1209    1.3305    0.0323 C.ar      1 <0>        -0.1500
      2 C2          1.0434    2.1109    0.0191 C.ar      1 <0>         0.0539
      3 C3          2.2813    1.5734   -0.0070 C.ar      1 <0>        -0.2098
      4 C4          2.4517    0.1615   -0.0229 C.ar      1 <0>         0.3275
      5 N1          3.5271   -0.5878   -0.0489 N.pl3     1 <0>        -0.5824
      6 C5          3.1161   -1.9961   -0.0548 C.3       1 <0>         0.0574
      7 C6          1.6040   -1.9869   -0.0281 C.2       1 <0>         0.0828
      8 C7          1.2374   -0.6851   -0.0094 C.ar      1 <0>        -0.1674
      9 C8         -0.0712   -0.0210    0.0195 C.ar      1 <0>        -0.0136
     10 C9          0.6905   -3.1856   -0.0239 C.3       1 <0>        -0.1029
     11 C10         0.4565   -3.6534   -1.4617 C.3       1 <0>         0.0943
     12 H1          0.0313   -2.8530   -2.0672 H         1 <0>         0.1362
     13 C11        -0.4282   -4.8961   -1.4966 C.3       1 <0>        -0.1484
     14 H2         -0.7621   -5.1412   -2.5048 H         1 <0>         0.1654
     15 C12         0.6226   -5.9128   -0.9159 C.3       1 <0>        -0.1691
     16 H3          0.7990   -5.4903    0.0732 H         1 <0>         0.1180
     17 C13        -0.2110   -7.0310   -0.5474 C.2       1 <0>         0.5795
     18 O1          0.0785   -8.2080   -0.5718 O.2       1 <0>        -0.4249
     19 N2         -1.4048   -6.4701   -0.1620 N.am      1 <0>        -0.5443
     20 C14        -1.4925   -5.1249   -0.4703 C.2       1 <0>         0.5512
     21 O2         -2.2566   -4.3042   -0.0099 O.2       1 <0>        -0.4203
     22 C15        -2.4337   -7.1860    0.4663 C.ar      1 <0>         0.1249
     23 C16        -2.2751   -8.5385    0.7369 C.ar      1 <0>        -0.0920
     24 C17        -3.2903   -9.2411    1.3558 C.ar      1 <0>        -0.0859
     25 C18        -4.4639   -8.5988    1.7059 C.ar      1 <0>        -0.0583
     26 C19        -4.6249   -7.2522    1.4372 C.ar      1 <0>        -0.0236
     27 C20        -3.6105   -6.5427    0.8240 C.ar      1 <0>        -0.0838
     28 N3         -5.8827   -6.5685    1.8131 N.pl3     1 <0>         0.0296
     29 O3         -6.7688   -7.1876    2.3547 O.2       1 <0>        -0.1415
     30 O4         -6.0241   -5.3909    1.5784 O.3       1 <0>        -0.1488
     31 C21         1.8926   -5.5773   -1.5523 C.3       1 <0>         0.1548
     32 N4          1.7288   -4.1771   -2.0740 N.3       1 <0>        -0.6322
     33 C22         3.0858   -5.6057   -0.6298 C.ar      1 <0>        -0.1324
     34 C23         3.3607   -4.9906    0.5711 C.ar      1 <0>        -0.0829
     35 C24         4.5742   -5.2110    1.1985 C.ar      1 <0>        -0.1382
     36 C25         5.5075   -6.0497    0.6168 C.ar      1 <0>        -0.0656
     37 C26         5.2349   -6.6679   -0.5857 C.ar      1 <0>        -0.1247
     38 C27         4.0151   -6.4516   -1.2237 C.ar      1 <0>         0.1650
     39 N5          3.5127   -6.9531   -2.4253 N.am      1 <0>        -0.6511
     40 C28         2.2780   -6.4922   -2.6918 C.2       1 <0>         0.5291
     41 O5          1.6019   -6.7599   -3.6624 O.2       1 <0>        -0.4695
     42 H4         -1.0826    1.8212    0.0578 H         1 <0>         0.1581
     43 H5          0.9460    3.1864    0.0298 H         1 <0>         0.1604
     44 H6          3.1471    2.2189   -0.0162 H         1 <0>         0.1601
     45 H7          3.4728   -2.4878   -0.9599 H         1 <0>         0.1847
     46 H8          3.5044   -2.5046    0.8276 H         1 <0>         0.1689
     47 H9         -0.9810   -0.6029    0.0304 H         1 <0>         0.1622
     48 H10         1.1499   -3.9905    0.5498 H         1 <0>         0.1113
     49 H11        -0.2628   -2.9143    0.4296 H         1 <0>         0.1307
     50 H12        -1.3589   -9.0408    0.4635 H         1 <0>         0.1683
     51 H13        -3.1676  -10.2933    1.5663 H         1 <0>         0.1619
     52 H14        -5.2565   -9.1503    2.1898 H         1 <0>         0.1638
     53 H15        -3.7349   -5.4897    0.6187 H         1 <0>         0.1752
     54 H16         1.6719   -4.1775   -3.0814 H         1 <0>         0.3716
     55 H17         2.6298   -4.3362    1.0228 H         1 <0>         0.1206
     56 H18         4.7922   -4.7290    2.1401 H         1 <0>         0.1366
     57 H19         6.4548   -6.2212    1.1065 H         1 <0>         0.1414
     58 H20         5.9686   -7.3216   -1.0338 H         1 <0>         0.1379
     59 H21         3.9984   -7.5633   -3.0019 H         1 <0>         0.4255
     60 H22         4.4418   -0.2650   -0.0623 H         1 <0>         0.4552
@<TRIPOS>BOND
     1    1    9 ar
     2    1    2 ar
     3    1   42 1
     4    2    3 ar
     5    2   43 1
     6    3    4 ar
     7    3   44 1
     8    4    8 ar
     9    4    5 2
    10    5    6 1
    11    5   60 1
    12    6    7 1
    13    6   45 1
    14    6   46 1
    15    7    8 2
    16    7   10 1
    17    8    9 ar
    18    9   47 1
    19   10   11 1
    20   10   48 1
    21   10   49 1
    22   11   12 1
    23   11   32 1
    24   11   13 1
    25   13   14 1
    26   13   20 1
    27   13   15 1
    28   15   16 1
    29   15   17 1
    30   15   31 1
    31   17   18 2
    32   17   19 am
    33   19   20 am
    34   19   22 1
    35   20   21 2
    36   22   27 ar
    37   22   23 ar
    38   23   24 ar
    39   23   50 1
    40   24   25 ar
    41   24   51 1
    42   25   26 ar
    43   25   52 1
    44   26   27 ar
    45   26   28 1
    46   27   53 1
    47   28   29 2
    48   28   30 1
    49   31   40 1
    50   31   32 1
    51   31   33 1
    52   32   54 1
    53   33   38 ar
    54   33   34 ar
    55   34   35 ar
    56   34   55 1
    57   35   36 ar
    58   35   56 1
    59   36   37 ar
    60   36   57 1
    61   37   38 ar
    62   37   58 1
    63   38   39 1
    64   39   40 am
    65   39   59 1
    66   40   41 2
@<TRIPOS>MOLECULE
ZINC14277731
   55    59     0     0     0
SMALL
USER_CHARGES
N-[5-(5-chloro-1,3-benzoxazol-2-yl)-2-methyl-phenyl]-3-nitro-4-pyrrolidin-1-yl-benzamide
@<TRIPOS>ATOM
      1 C1          4.2953   10.6356    0.9985 C.3       1 <0>        -0.1225
      2 C2          3.5798    9.4275    0.4511 C.ar      1 <0>        -0.0794
      3 C3          2.1982    9.3802    0.4649 C.ar      1 <0>        -0.1031
      4 C4          1.5359    8.2795   -0.0390 C.ar      1 <0>        -0.0855
      5 C5          2.2615    7.2045   -0.5561 C.ar      1 <0>        -0.0217
      6 C6          3.6550    7.2524   -0.5704 C.ar      1 <0>        -0.0611
      7 C7          4.3110    8.3650   -0.0662 C.ar      1 <0>         0.1367
      8 N1          5.7087    8.4177   -0.0778 N.am      1 <0>        -0.6636
      9 C8          6.4271    7.2909    0.0971 C.2       1 <0>         0.5618
     10 O1          5.8629    6.2169    0.1803 O.2       1 <0>        -0.4937
     11 C9          7.8976    7.3603    0.1877 C.ar      1 <0>        -0.1399
     12 C10         8.5483    8.5938    0.0864 C.ar      1 <0>        -0.0279
     13 C11         9.9198    8.6559    0.1765 C.ar      1 <0>        -0.1605
     14 C12        10.6606    7.4907    0.3568 C.ar      1 <0>         0.1831
     15 C13        10.0162    6.2606    0.4527 C.ar      1 <0>        -0.0325
     16 C14         8.6441    6.1925    0.3691 C.ar      1 <0>         0.0118
     17 N2         10.8074    5.0245    0.6454 N.pl3     1 <0>         0.0253
     18 O2         10.2543    3.9394    0.6339 O.2       1 <0>        -0.1840
     19 O3         12.0116    5.0926    0.8153 O.3       1 <0>        -0.0922
     20 N3         12.0469    7.5562    0.4417 N.pl3     1 <0>        -0.4806
     21 C15        12.6179    8.2811   -0.7222 C.3       1 <0>         0.0355
     22 C16        14.0190    8.7110   -0.2196 C.3       1 <0>        -0.1209
     23 C17        13.7600    9.0687    1.2619 C.3       1 <0>        -0.1294
     24 C18        12.4694    8.3172    1.6374 C.3       1 <0>         0.0423
     25 C19         1.5545    6.0221   -1.0923 C.2       1 <0>         0.3026
     26 N4          2.1371    4.9668   -1.6019 N.2       1 <0>        -0.4596
     27 C20         1.1808    4.0847   -1.9900 C.ar      1 <0>         0.0387
     28 C21         1.2187    2.8203   -2.5833 C.ar      1 <0>        -0.0508
     29 C22         0.0415    2.1608   -2.8613 C.ar      1 <0>        -0.0350
     30 C23        -1.1803    2.7474   -2.5603 C.ar      1 <0>        -0.0841
     31 C24        -1.2320    3.9927   -1.9692 C.ar      1 <0>        -0.0755
     32 C25        -0.0576    4.6713   -1.6826 C.ar      1 <0>         0.0128
     33 O4          0.2169    5.8726   -1.1271 O.3       1 <0>        -0.2038
     34 Cl1         0.0860    0.5900   -3.5990 Cl        1 <0>        -0.0489
     35 H1          4.4433   11.3629    0.2002 H         1 <0>         0.0792
     36 H2          3.6971   11.0836    1.7919 H         1 <0>         0.0796
     37 H3          5.2631   10.3341    1.3993 H         1 <0>         0.0663
     38 H4          1.6353   10.2091    0.8679 H         1 <0>         0.1407
     39 H5          0.4564    8.2481   -0.0302 H         1 <0>         0.1378
     40 H6          4.2215    6.4254   -0.9725 H         1 <0>         0.1614
     41 H7          6.1610    9.2653   -0.2118 H         1 <0>         0.4122
     42 H8          7.9746    9.4974   -0.0582 H         1 <0>         0.1454
     43 H9         10.4227    9.6088    0.1025 H         1 <0>         0.1543
     44 H10         8.1448    5.2378    0.4432 H         1 <0>         0.1717
     45 H11        12.7047    7.6184   -1.5833 H         1 <0>         0.0902
     46 H12        12.0123    9.1538   -0.9667 H         1 <0>         0.0555
     47 H13        14.3758    9.5816   -0.7700 H         1 <0>         0.0791
     48 H14        14.7271    7.8862   -0.2992 H         1 <0>         0.0840
     49 H15        13.6176   10.1437    1.3722 H         1 <0>         0.0719
     50 H16        14.5892    8.7304    1.8833 H         1 <0>         0.0816
     51 H17        11.6933    9.0294    1.9177 H         1 <0>         0.0519
     52 H18        12.6616    7.6333    2.4641 H         1 <0>         0.0914
     53 H19         2.1668    2.3617   -2.8227 H         1 <0>         0.1495
     54 H20        -2.0969    2.2230   -2.7867 H         1 <0>         0.1538
     55 H21        -2.1863    4.4406   -1.7347 H         1 <0>         0.1482
@<TRIPOS>BOND
     1    1    2 1
     2    1   35 1
     3    1   36 1
     4    1   37 1
     5    2    7 ar
     6    2    3 ar
     7    3    4 ar
     8    3   38 1
     9    4    5 ar
    10    4   39 1
    11    5    6 ar
    12    5   25 1
    13    6    7 ar
    14    6   40 1
    15    7    8 1
    16    8    9 am
    17    8   41 1
    18    9   10 2
    19    9   11 1
    20   11   16 ar
    21   11   12 ar
    22   12   13 ar
    23   12   42 1
    24   13   14 ar
    25   13   43 1
    26   14   15 ar
    27   14   20 1
    28   15   16 ar
    29   15   17 1
    30   16   44 1
    31   17   18 2
    32   17   19 1
    33   20   24 1
    34   20   21 1
    35   21   22 1
    36   21   45 1
    37   21   46 1
    38   22   23 1
    39   22   47 1
    40   22   48 1
    41   23   24 1
    42   23   49 1
    43   23   50 1
    44   24   51 1
    45   24   52 1
    46   25   33 1
    47   25   26 2
    48   26   27 1
    49   27   32 ar
    50   27   28 ar
    51   28   29 ar
    52   28   53 1
    53   29   30 ar
    54   29   34 1
    55   30   31 ar
    56   30   54 1
    57   31   32 ar
    58   31   55 1
    59   32   33 1
@<TRIPOS>MOLECULE
ZINC32535259
   59    62     0     0     0
SMALL
USER_CHARGES
allyl 4-methyl-2-[[(2R)-2-[(5,7,9-trimethyl-[1,2,4]triazolo[4,3-a]quinolin-1-yl)sulfanyl]propanoyl]amino]thiazole-5-carboxylate
@<TRIPOS>ATOM
      1 C1          4.9203   -2.7871    0.0755 C.3       1 <0>        -0.1210
      2 C2          3.6395   -2.0091    0.2234 C.ar      1 <0>        -0.0708
      3 C3          2.4921   -2.6349    0.6791 C.ar      1 <0>        -0.0951
      4 C4          1.2841   -1.9613    0.7057 C.ar      1 <0>        -0.0752
      5 C5          1.1951   -0.6701    0.2105 C.ar      1 <0>         0.1249
      6 C6          2.4067    0.0348    0.0189 C.ar      1 <0>        -0.0534
      7 C7          3.6081   -0.6682   -0.0954 C.ar      1 <0>        -0.0909
      8 C8          2.3772    1.4978   -0.0349 C.2       1 <0>        -0.0396
      9 C9          1.1812    2.1278    0.0022 C.2       1 <0>        -0.0883
     10 C10        -0.0167    1.3775    0.0096 C.2       1 <0>         0.2080
     11 N1          0.0021   -0.0041    0.0020 N.pl3     1 <0>        -0.3807
     12 C11        -1.2826   -0.3633   -0.2740 C.2       1 <0>         0.1250
     13 N2         -2.0255    0.7253   -0.1946 N.2       1 <0>        -0.2609
     14 N3         -1.2815    1.7537   -0.0244 N.2       1 <0>        -0.2578
     15 S1         -1.8995   -1.9600   -0.6940 S.3       1 <0>         0.1233
     16 C12        -3.6567   -1.5752   -0.8948 C.3       1 <0>        -0.1178
     17 H1         -3.9548   -0.7884   -1.6034 H         1 <0>         0.1335
     18 C13        -4.2402   -1.1386    0.4506 C.3       1 <0>        -0.1532
     19 C14        -4.3862   -2.7993   -1.3852 C.2       1 <0>         0.5358
     20 O1         -3.9375   -3.9032   -1.1604 O.2       1 <0>        -0.4802
     21 N4         -5.5373   -2.6671   -2.0737 N.am      1 <0>        -0.6128
     22 C15        -6.2071   -3.7911   -2.5240 C.2       1 <0>         0.3025
     23 N5         -7.3408   -3.8627   -3.2041 N.2       1 <0>        -0.5534
     24 C16        -7.8512   -5.0102   -3.5661 C.2       1 <0>         0.1983
     25 C17        -7.1700   -6.1645   -3.2026 C.2       1 <0>        -0.3253
     26 S2         -5.7758   -5.4622   -2.3325 S.3       1 <0>         0.2468
     27 C18        -7.5012   -7.5643   -3.4599 C.2       1 <0>         0.5683
     28 O2         -8.5095   -7.8470   -4.0794 O.2       1 <0>        -0.4944
     29 O3         -6.6887   -8.5435   -3.0106 O.3       1 <0>        -0.3434
     30 C19        -7.0739   -9.8892   -3.2982 C.3       1 <0>         0.0939
     31 C20        -6.0540  -10.8376   -2.7226 C.2       1 <0>        -0.1649
     32 C21        -6.4459  -11.9009   -2.0654 C.2       1 <0>        -0.1689
     33 C22        -9.1389   -5.0787   -4.3459 C.3       1 <0>        -0.1106
     34 C23         3.6459    2.3036   -0.1408 C.3       1 <0>        -0.1168
     35 C24         0.1129   -2.6443    1.3640 C.3       1 <0>        -0.1340
     36 H2          4.7513   -3.8320    0.3749 H         1 <0>         0.0717
     37 H3          5.6954   -2.3426    0.7170 H         1 <0>         0.0765
     38 H4          5.2497   -2.7550   -0.9735 H         1 <0>         0.0775
     39 H5          2.5280   -3.6688    0.9884 H         1 <0>         0.1398
     40 H6          4.5261   -0.1746   -0.3708 H         1 <0>         0.1432
     41 H7          1.1425    3.2065    0.0270 H         1 <0>         0.1606
     42 H8         -5.3081   -0.9048    0.3285 H         1 <0>         0.0769
     43 H9         -3.7077   -0.2451    0.8085 H         1 <0>         0.0989
     44 H10        -4.1242   -1.9521    1.1819 H         1 <0>         0.0750
     45 H11        -5.9443   -1.6657   -2.2776 H         1 <0>         0.4622
     46 H12        -8.0577  -10.0927   -2.8502 H         1 <0>         0.0775
     47 H13        -7.1311  -10.0294   -4.3877 H         1 <0>         0.0823
     48 H14        -4.9805  -10.6370   -2.8543 H         1 <0>         0.1243
     49 H15        -5.7015  -12.5932   -1.6452 H         1 <0>         0.1128
     50 H16        -7.5194  -12.1015   -1.9337 H         1 <0>         0.1033
     51 H17        -9.3902   -6.1305   -4.5471 H         1 <0>         0.1081
     52 H18        -9.0198   -4.5415   -5.2984 H         1 <0>         0.0833
     53 H19        -9.9467   -4.6141   -3.7614 H         1 <0>         0.0835
     54 H20         3.3986    3.3751   -0.1668 H         1 <0>         0.0800
     55 H21         4.1795    2.0279   -1.0624 H         1 <0>         0.0821
     56 H22         4.2858    2.0960    0.7295 H         1 <0>         0.0814
     57 H23        -0.7709   -1.9919    1.3079 H         1 <0>         0.0727
     58 H24         0.3522   -2.8477    2.4182 H         1 <0>         0.0874
     59 H25        -0.0973   -3.5918    0.8463 H         1 <0>         0.0881
@<TRIPOS>BOND
     1    1    2 1
     2    1   36 1
     3    1   37 1
     4    1   38 1
     5    2    7 ar
     6    2    3 ar
     7    3    4 ar
     8    3   39 1
     9    4    5 ar
    10    4   35 1
    11    5   11 1
    12    5    6 ar
    13    6    7 ar
    14    6    8 1
    15    7   40 1
    16    8    9 2
    17    8   34 1
    18    9   10 1
    19    9   41 1
    20   10   14 2
    21   10   11 1
    22   11   12 1
    23   12   13 2
    24   12   15 1
    25   13   14 1
    26   15   16 1
    27   16   17 1
    28   16   18 1
    29   16   19 1
    30   18   42 1
    31   18   43 1
    32   18   44 1
    33   19   20 2
    34   19   21 am
    35   21   22 1
    36   21   45 1
    37   22   26 1
    38   22   23 2
    39   23   24 1
    40   24   25 2
    41   24   33 1
    42   25   26 1
    43   25   27 1
    44   27   28 2
    45   27   29 1
    46   29   30 1
    47   30   31 1
    48   30   46 1
    49   30   47 1
    50   31   32 2
    51   31   48 1
    52   32   49 1
    53   32   50 1
    54   33   51 1
    55   33   52 1
    56   33   53 1
    57   34   54 1
    58   34   55 1
    59   34   56 1
    60   35   57 1
    61   35   58 1
    62   35   59 1
@<TRIPOS>MOLECULE
ZINC35867388
   71    75     0     0     0
SMALL
USER_CHARGES

@<TRIPOS>ATOM
      1 C1         -4.7678   -2.0104    4.5985 C.3       1 <0>        -0.1480
      2 C2         -3.6532   -2.4981    3.6707 C.3       1 <0>        -0.0859
      3 H1         -3.1384   -1.6415    3.2358 H         1 <0>         0.0769
      4 C3         -4.2533   -3.3581    2.5546 C.3       1 <0>        -0.1181
      5 C4         -3.1920   -3.6420    1.4916 C.3       1 <0>        -0.0583
      6 C5         -1.9543   -4.2227    2.1708 C.2       1 <0>        -0.0813
      7 C6         -1.7628   -4.0656    3.5003 C.2       1 <0>        -0.1387
      8 S1         -0.2272   -4.8845    3.8517 S.3       1 <0>         0.1095
      9 C7          0.1564   -5.4370    2.2214 C.ar      1 <0>         0.1114
     10 C8         -0.9327   -4.9616    1.4476 C.ar      1 <0>        -0.1922
     11 C9         -0.9093   -5.2574    0.0544 C.ar      1 <0>         0.4844
     12 N1          0.1420   -5.9544   -0.3731 N.ar      1 <0>        -0.5433
     13 C10         1.1208   -6.3642    0.4083 C.ar      1 <0>         0.3512
     14 N2          1.1608   -6.1225    1.7134 N.ar      1 <0>        -0.4527
     15 C11         2.2512   -7.1457   -0.2100 C.3       1 <0>        -0.0260
     16 C12         3.5682   -6.3990    0.0108 C.3       1 <0>        -0.1421
     17 C13         2.3327   -8.5273    0.4422 C.3       1 <0>        -0.1417
     18 N3         -1.9158   -4.8468   -0.8011 N.pl3     1 <0>        -0.6505
     19 C14        -1.9090   -3.4908   -1.3677 C.3       1 <0>         0.1310
     20 C15        -1.9765   -3.5980   -2.8962 C.3       1 <0>         0.1143
     21 N4         -3.0715   -4.5102   -3.2551 N.am      1 <0>        -0.6193
     22 C16        -3.0783   -5.8662   -2.6884 C.3       1 <0>         0.0934
     23 C17        -3.0078   -5.7608   -1.1644 C.3       1 <0>         0.1318
     24 C18        -4.0522   -4.1101   -4.0886 C.2       1 <0>         0.7103
     25 O1         -3.9705   -3.0358   -4.6521 O.2       1 <0>        -0.5583
     26 N5         -5.1234   -4.9009   -4.2974 N.am      1 <0>        -0.6782
     27 C19        -6.0427   -4.5825   -5.3033 C.ar      1 <0>         0.2402
     28 C20        -6.1663   -3.2710   -5.7411 C.ar      1 <0>        -0.2088
     29 C21        -7.0769   -2.9563   -6.7380 C.ar      1 <0>         0.1858
     30 C22        -7.8643   -3.9514   -7.2978 C.ar      1 <0>        -0.3174
     31 C23        -7.7412   -5.2618   -6.8609 C.ar      1 <0>         0.1867
     32 C24        -6.8272   -5.5788   -5.8677 C.ar      1 <0>        -0.2248
     33 O2         -8.5130   -6.2363   -7.4099 O.3       1 <0>        -0.3131
     34 C25        -9.4293   -5.8394   -8.4321 C.3       1 <0>         0.0270
     35 O3         -7.1984   -1.6724   -7.1664 O.3       1 <0>        -0.3090
     36 C26        -8.1563   -1.4200   -8.1964 C.3       1 <0>         0.0263
     37 C27        -2.6546   -3.3488    4.4681 C.3       1 <0>        -0.0375
     38 H2         -4.3377   -1.4035    5.3953 H         1 <0>         0.0585
     39 H3         -5.4786   -1.4116    4.0291 H         1 <0>         0.0600
     40 H4         -5.2811   -2.8686    5.0322 H         1 <0>         0.0575
     41 H5         -4.6074   -4.3000    2.9735 H         1 <0>         0.0661
     42 H6         -5.0898   -2.8283    2.0989 H         1 <0>         0.0721
     43 H7         -3.5818   -4.3587    0.7688 H         1 <0>         0.0838
     44 H8         -2.9279   -2.7149    0.9828 H         1 <0>         0.0770
     45 H9          2.0725   -7.2587   -1.2793 H         1 <0>         0.0983
     46 H10         3.7469   -6.2860    1.0801 H         1 <0>         0.0671
     47 H11         4.3859   -6.9643   -0.4365 H         1 <0>         0.0685
     48 H12         3.5102   -5.4147   -0.4539 H         1 <0>         0.0536
     49 H13         1.3945   -9.0593    0.2849 H         1 <0>         0.0533
     50 H14         3.1503   -9.0926   -0.0050 H         1 <0>         0.0684
     51 H15         2.5114   -8.4143    1.5115 H         1 <0>         0.0671
     52 H16        -2.7733   -2.9369   -1.0013 H         1 <0>         0.0723
     53 H17        -0.9924   -2.9775   -1.0771 H         1 <0>         0.0835
     54 H18        -2.1654   -2.6135   -3.3240 H         1 <0>         0.1060
     55 H19        -1.0337   -3.9905   -3.2773 H         1 <0>         0.0756
     56 H20        -3.9949   -6.3795   -2.9790 H         1 <0>         0.0847
     57 H21        -2.2140   -6.4201   -3.0548 H         1 <0>         0.0834
     58 H22        -2.8167   -6.7462   -0.7395 H         1 <0>         0.0846
     59 H23        -3.9522   -5.3722   -0.7832 H         1 <0>         0.0705
     60 H24        -5.2571   -5.6908   -3.7505 H         1 <0>         0.4093
     61 H25        -5.5535   -2.4960   -5.3050 H         1 <0>         0.1729
     62 H26        -8.5737   -3.7056   -8.0741 H         1 <0>         0.1340
     63 H27        -6.7286   -6.6000   -5.5303 H         1 <0>         0.1337
     64 H28        -8.8782   -5.3993   -9.2632 H         1 <0>         0.0561
     65 H29        -9.9816   -6.7110   -8.7834 H         1 <0>         0.1025
     66 H30       -10.1271   -5.1051   -8.0295 H         1 <0>         0.0562
     67 H31        -9.1484   -1.7077   -7.8483 H         1 <0>         0.0554
     68 H32        -8.1520   -0.3586   -8.4445 H         1 <0>         0.1025
     69 H33        -7.8993   -2.0012   -9.0820 H         1 <0>         0.0553
     70 H34        -2.0570   -2.7041    5.1125 H         1 <0>         0.0865
     71 H35        -3.1949   -4.0767    5.0733 H         1 <0>         0.0886
@<TRIPOS>BOND
     1    1    2 1
     2    1   38 1
     3    1   39 1
     4    1   40 1
     5    2    3 1
     6    2   37 1
     7    2    4 1
     8    4    5 1
     9    4   41 1
    10    4   42 1
    11    5    6 1
    12    5   43 1
    13    5   44 1
    14    6   10 1
    15    6    7 2
    16    7    8 1
    17    7   37 1
    18    8    9 1
    19    9   14 ar
    20    9   10 ar
    21   10   11 ar
    22   11   12 ar
    23   11   18 1
    24   12   13 ar
    25   13   14 ar
    26   13   15 1
    27   15   16 1
    28   15   17 1
    29   15   45 1
    30   16   46 1
    31   16   47 1
    32   16   48 1
    33   17   49 1
    34   17   50 1
    35   17   51 1
    36   18   23 1
    37   18   19 1
    38   19   20 1
    39   19   52 1
    40   19   53 1
    41   20   21 1
    42   20   54 1
    43   20   55 1
    44   21   22 1
    45   21   24 am
    46   22   23 1
    47   22   56 1
    48   22   57 1
    49   23   58 1
    50   23   59 1
    51   24   25 2
    52   24   26 am
    53   26   27 1
    54   26   60 1
    55   27   32 ar
    56   27   28 ar
    57   28   29 ar
    58   28   61 1
    59   29   30 ar
    60   29   35 1
    61   30   31 ar
    62   30   62 1
    63   31   32 ar
    64   31   33 1
    65   32   63 1
    66   33   34 1
    67   34   64 1
    68   34   65 1
    69   34   66 1
    70   35   36 1
    71   36   67 1
    72   36   68 1
    73   36   69 1
    74   37   70 1
    75   37   71 1
@<TRIPOS>MOLECULE
ZINC40036116
   64    68     0     0     0
SMALL
USER_CHARGES

@<TRIPOS>ATOM
      1 C1          1.8777    1.4063    1.9752 C.3       1 <0>        -0.1521
      2 C2          1.3320    0.1111    1.3706 C.3       1 <0>        -0.1183
      3 C3          1.6854    0.0540   -0.1169 C.3       1 <0>        -0.1039
      4 C4          1.1398   -1.2412   -0.7214 C.3       1 <0>         0.0190
      5 C5          1.4704   -1.2795   -2.2113 C.3       1 <0>        -0.0761
      6 C6          2.9500   -1.4573   -2.4201 C.ar      1 <0>        -0.0442
      7 C7          3.5864   -0.8374   -3.4758 C.ar      1 <0>        -0.1255
      8 C8          4.9463   -1.0094   -3.6630 C.ar      1 <0>        -0.0954
      9 C9          5.6780   -1.8025   -2.7969 C.ar      1 <0>        -0.1340
     10 C10         5.0533   -2.4276   -1.7361 C.ar      1 <0>        -0.0660
     11 C11         3.6859   -2.2549   -1.5426 C.ar      1 <0>        -0.0586
     12 C12         2.9901   -2.9038   -0.4082 C.2       1 <0>         0.2559
     13 C13         1.7531   -2.4154   -0.0126 C.2       1 <0>        -0.2713
     14 C14         1.0924   -3.0358    1.0552 C.2       1 <0>         0.5499
     15 O1          0.0018   -2.6360    1.4299 O.2       1 <0>        -0.5072
     16 N1          1.6873   -4.0860    1.6612 N.am      1 <0>        -0.4959
     17 C15         2.9078   -4.5228    1.2367 C.2       1 <0>         0.6489
     18 N2          3.5334   -3.9445    0.2319 N.2       1 <0>        -0.5353
     19 N3          3.4962   -5.5872    1.8695 N.pl3     1 <0>        -0.5463
     20 N4          4.7656   -6.0252    1.4700 N.2       1 <0>        -0.1791
     21 C16         5.3226   -7.0328    2.0690 C.2       1 <0>         0.0937
     22 C17         6.6588   -7.4939    1.6485 C.ar      1 <0>         0.0022
     23 C18         7.3303   -6.8449    0.6096 C.ar      1 <0>        -0.0800
     24 C19         8.5800   -7.2813    0.2219 C.ar      1 <0>        -0.0557
     25 C20         9.1684   -8.3595    0.8590 C.ar      1 <0>        -0.0374
     26 C21         8.5091   -9.0072    1.8889 C.ar      1 <0>        -0.0566
     27 C22         7.2614   -8.5781    2.2910 C.ar      1 <0>        -0.0900
     28 N5         10.5094   -8.8227    0.4366 N.pl3     1 <0>         0.0297
     29 O2         11.0879   -8.2591   -0.4632 O.2       1 <0>        -0.1533
     30 O3         11.0262   -9.7644    0.9913 O.3       1 <0>        -0.1544
     31 C23         1.0490   -4.7285    2.7294 C.ar      1 <0>         0.0793
     32 C24         1.2666   -4.2968    4.0312 C.ar      1 <0>        -0.0956
     33 C25         0.6357   -4.9326    5.0826 C.ar      1 <0>        -0.1079
     34 C26        -0.2118   -5.9980    4.8399 C.ar      1 <0>        -0.0970
     35 C27        -0.4301   -6.4305    3.5448 C.ar      1 <0>        -0.1081
     36 C28         0.1929   -5.7950    2.4886 C.ar      1 <0>        -0.0966
     37 C29        -0.3791   -1.2808   -0.5416 C.3       1 <0>        -0.1400
     38 H1          2.9610    1.4339    1.8578 H         1 <0>         0.0499
     39 H2          1.4349    2.2609    1.4635 H         1 <0>         0.0542
     40 H3          1.6258    1.4470    3.0349 H         1 <0>         0.0505
     41 H4          1.7747   -0.7434    1.8823 H         1 <0>         0.0492
     42 H5          0.2487    0.0835    1.4880 H         1 <0>         0.0705
     43 H6          1.2427    0.9086   -0.6286 H         1 <0>         0.0671
     44 H7          2.7688    0.0816   -0.2342 H         1 <0>         0.0606
     45 H8          0.9394   -2.1102   -2.6761 H         1 <0>         0.0813
     46 H9          1.1516   -0.3457   -2.6744 H         1 <0>         0.0863
     47 H10         3.0223   -0.2175   -4.1569 H         1 <0>         0.1281
     48 H11         5.4399   -0.5218   -4.4906 H         1 <0>         0.1256
     49 H12         6.7389   -1.9330   -2.9510 H         1 <0>         0.1271
     50 H13         5.6230   -3.0477   -1.0597 H         1 <0>         0.1342
     51 H14         3.0337   -6.0369    2.5938 H         1 <0>         0.4034
     52 H15         4.8077   -7.5336    2.8755 H         1 <0>         0.1334
     53 H16         6.8719   -6.0037    0.1109 H         1 <0>         0.1610
     54 H17         9.1003   -6.7806   -0.5812 H         1 <0>         0.1590
     55 H18         8.9742   -9.8483    2.3815 H         1 <0>         0.1596
     56 H19         6.7499   -9.0817    3.0979 H         1 <0>         0.1542
     57 H20         1.9286   -3.4650    4.2214 H         1 <0>         0.1282
     58 H21         0.8047   -4.5975    6.0953 H         1 <0>         0.1359
     59 H22        -0.7040   -6.4935    5.6637 H         1 <0>         0.1343
     60 H23        -1.0921   -7.2634    3.3586 H         1 <0>         0.1359
     61 H24         0.0183   -6.1303    1.4769 H         1 <0>         0.1284
     62 H25        -0.8409   -0.5324   -1.1856 H         1 <0>         0.0470
     63 H26        -0.7510   -2.2698   -0.8093 H         1 <0>         0.0485
     64 H27        -0.6275   -1.0685    0.4983 H         1 <0>         0.0900
@<TRIPOS>BOND
     1    1    2 1
     2    1   38 1
     3    1   39 1
     4    1   40 1
     5    2    3 1
     6    2   41 1
     7    2   42 1
     8    3    4 1
     9    3   43 1
    10    3   44 1
    11    4   13 1
    12    4    5 1
    13    4   37 1
    14    5    6 1
    15    5   45 1
    16    5   46 1
    17    6   11 ar
    18    6    7 ar
    19    7    8 ar
    20    7   47 1
    21    8    9 ar
    22    8   48 1
    23    9   10 ar
    24    9   49 1
    25   10   11 ar
    26   10   50 1
    27   11   12 1
    28   12   18 1
    29   12   13 2
    30   13   14 1
    31   14   15 2
    32   14   16 am
    33   16   17 1
    34   16   31 1
    35   17   18 2
    36   17   19 1
    37   19   20 1
    38   19   51 1
    39   20   21 2
    40   21   22 1
    41   21   52 1
    42   22   27 ar
    43   22   23 ar
    44   23   24 ar
    45   23   53 1
    46   24   25 ar
    47   24   54 1
    48   25   26 ar
    49   25   28 1
    50   26   27 ar
    51   26   55 1
    52   27   56 1
    53   28   29 2
    54   28   30 1
    55   31   36 ar
    56   31   32 ar
    57   32   33 ar
    58   32   57 1
    59   33   34 ar
    60   33   58 1
    61   34   35 ar
    62   34   59 1
    63   35   36 ar
    64   35   60 1
    65   36   61 1
    66   37   62 1
    67   37   63 1
    68   37   64 1
@<TRIPOS>MOLECULE
ZINC59421778
   48    52     0     0     0
SMALL
USER_CHARGES

@<TRIPOS>ATOM
      1 C1          1.0710   -0.4543   -0.7666 C.ar      1 <0>        -0.0825
      2 C2          2.2565    0.2537   -0.7793 C.ar      1 <0>        -0.1000
      3 C3          2.3796    1.4147   -0.0300 C.ar      1 <0>         0.0930
      4 C4          1.3118    1.8655    0.7323 C.ar      1 <0>        -0.1688
      5 C5          0.1257    1.1586    0.7461 C.ar      1 <0>        -0.0975
      6 C6          0.0017   -0.0036   -0.0038 C.ar      1 <0>         0.1283
      7 N1         -1.2008   -0.7210    0.0097 N.am      1 <0>        -0.6550
      8 C7         -1.1854   -2.0643   -0.0994 C.2       1 <0>         0.6060
      9 O1         -0.1263   -2.6609   -0.1129 O.2       1 <0>        -0.4885
     10 C8         -2.4565   -2.8122   -0.2027 C.2       1 <0>         0.0730
     11 C9         -2.5793   -4.2015   -0.3145 C.2       1 <0>        -0.1750
     12 C10        -3.9324   -4.4979   -0.3853 C.2       1 <0>         0.2651
     13 N2         -4.5954   -5.6564   -0.4979 N.2       1 <0>        -0.4240
     14 C11        -5.9149   -5.6771   -0.5458 C.2       1 <0>         0.2582
     15 C12        -6.6452   -4.4678   -0.4786 C.2       1 <0>        -0.1336
     16 C13        -5.9798   -3.2974   -0.3650 C.2       1 <0>         0.0938
     17 N3         -4.6119   -3.3070   -0.3172 N.pl3     1 <0>        -0.2936
     18 N4         -3.6683   -2.2796   -0.1991 N.2       1 <0>        -0.2612
     19 C14        -6.7353   -1.9956   -0.2920 C.3       1 <0>         0.5246
     20 F1         -8.1094   -2.2494   -0.3607 F         1 <0>        -0.1557
     21 F2         -6.4397   -1.3518    0.9144 F         1 <0>        -0.1548
     22 F3         -6.3583   -1.1770   -1.3620 F         1 <0>        -0.1545
     23 C15        -6.6303   -6.9673   -0.6705 C.ar      1 <0>        -0.0634
     24 C16        -8.0242   -6.9911   -0.7271 C.ar      1 <0>        -0.0700
     25 C17        -8.6893   -8.1934   -0.8438 C.ar      1 <0>        -0.1039
     26 C18        -7.9765   -9.3823   -0.9052 C.ar      1 <0>         0.0654
     27 C19        -6.5832   -9.3647   -0.8490 C.ar      1 <0>         0.0277
     28 C20        -5.9119   -8.1614   -0.7374 C.ar      1 <0>        -0.0457
     29 O2         -6.1277  -10.6494   -0.9278 O.3       1 <0>        -0.3027
     30 C21        -7.2637  -11.4791   -0.6209 C.3       1 <0>         0.2117
     31 O3         -8.3911  -10.6774   -1.0195 O.3       1 <0>        -0.3030
     32 O4          3.5475    2.1108   -0.0423 O.3       1 <0>        -0.3087
     33 C22         3.6042    3.2970    0.7525 C.3       1 <0>         0.6037
     34 F4          3.3749    2.9712    2.0936 F         1 <0>        -0.1645
     35 F5          4.8676    3.8841    0.6247 F         1 <0>        -0.1299
     36 F6          2.6255    4.1970    0.3174 F         1 <0>        -0.1648
     37 H1          0.9740   -1.3558   -1.3532 H         1 <0>         0.1509
     38 H2          3.0882   -0.0967   -1.3725 H         1 <0>         0.1462
     39 H3          1.4083    2.7694    1.3154 H         1 <0>         0.1397
     40 H4         -0.7053    1.5093    1.3401 H         1 <0>         0.1398
     41 H5         -2.0449   -0.2512    0.0975 H         1 <0>         0.4214
     42 H6         -1.7679   -4.9137   -0.3412 H         1 <0>         0.1850
     43 H7         -7.7244   -4.4797   -0.5182 H         1 <0>         0.1894
     44 H8         -8.5823   -6.0678   -0.6792 H         1 <0>         0.1481
     45 H9         -9.7683   -8.2097   -0.8871 H         1 <0>         0.1484
     46 H10        -4.8327   -8.1461   -0.6980 H         1 <0>         0.1534
     47 H11        -7.2289  -12.4041   -1.1965 H         1 <0>         0.1376
     48 H12        -7.3043  -11.6929    0.4471 H         1 <0>         0.0906
@<TRIPOS>BOND
     1    1    6 ar
     2    1    2 ar
     3    1   37 1
     4    2    3 ar
     5    2   38 1
     6    3    4 ar
     7    3   32 1
     8    4    5 ar
     9    4   39 1
    10    5    6 ar
    11    5   40 1
    12    6    7 1
    13    7    8 am
    14    7   41 1
    15    8    9 2
    16    8   10 1
    17   10   18 2
    18   10   11 1
    19   11   12 2
    20   11   42 1
    21   12   17 1
    22   12   13 1
    23   13   14 2
    24   14   15 1
    25   14   23 1
    26   15   16 2
    27   15   43 1
    28   16   17 1
    29   16   19 1
    30   17   18 1
    31   19   20 1
    32   19   21 1
    33   19   22 1
    34   23   28 ar
    35   23   24 ar
    36   24   25 ar
    37   24   44 1
    38   25   26 ar
    39   25   45 1
    40   26   31 1
    41   26   27 ar
    42   27   28 ar
    43   27   29 1
    44   28   46 1
    45   29   30 1
    46   30   31 1
    47   30   47 1
    48   30   48 1
    49   32   33 1
    50   33   34 1
    51   33   35 1
    52   33   36 1
@<TRIPOS>MOLECULE
ZINC13355306
   54    57     0     0     0
SMALL
USER_CHARGES
4-[[2-[[4-cyclohexyl-5-(2-thienylmethyl)-1,2,4-triazol-3-yl]sulfanyl]acetyl]amino]benzoic acid
@<TRIPOS>ATOM
      1 C1          2.3645    0.4019   -0.4319 C.2       1 <0>        -0.1593
      2 C2          1.5855    1.5416   -0.3623 C.2       1 <0>        -0.1486
      3 C3          0.2414    1.4128   -0.2428 C.2       1 <0>        -0.1497
      4 S1          0.0405   -0.3611   -0.2255 S.3       1 <0>         0.0670
      5 C4          1.7614   -0.8109   -0.3787 C.2       1 <0>        -0.1738
      6 C5         -0.8108    2.4879   -0.1543 C.3       1 <0>         0.0550
      7 C6         -1.2814    2.8456   -1.5405 C.2       1 <0>         0.1830
      8 N1         -2.2689    2.2937   -2.1870 N.2       1 <0>        -0.2723
      9 N2         -2.3988    2.8392   -3.3435 N.2       1 <0>        -0.2928
     10 C7         -1.4930    3.7768   -3.4986 C.2       1 <0>         0.1473
     11 N3         -0.7549    3.8136   -2.3505 N.pl3     1 <0>        -0.4494
     12 C8          0.3697    4.7031   -2.0499 C.3       1 <0>         0.1354
     13 C9         -0.1010    6.1577   -2.1082 C.3       1 <0>        -0.1375
     14 C10         1.0735    7.0867   -1.7943 C.3       1 <0>        -0.1123
     15 C11         2.1851    6.8688   -2.8228 C.3       1 <0>        -0.1279
     16 C12         2.6558    5.4141   -2.7645 C.3       1 <0>        -0.1119
     17 C13         1.4813    4.4851   -3.0784 C.3       1 <0>        -0.1365
     18 S2         -1.2753    4.7989   -4.9172 S.3       1 <0>         0.0912
     19 C14        -2.6036    4.1631   -5.9695 C.3       1 <0>        -0.1544
     20 C15        -2.6101    4.9116   -7.2775 C.2       1 <0>         0.5288
     21 O1         -1.7969    5.7885   -7.4784 O.2       1 <0>        -0.5040
     22 N4         -3.5198    4.6064   -8.2240 N.am      1 <0>        -0.6582
     23 C16        -3.5977    5.3698   -9.3879 C.ar      1 <0>         0.1266
     24 C17        -3.3304    6.7346   -9.3419 C.ar      1 <0>        -0.1337
     25 C18        -3.4016    7.4906  -10.4899 C.ar      1 <0>        -0.0600
     26 C19        -3.7535    6.8877  -11.7012 C.ar      1 <0>        -0.1212
     27 C20        -4.0266    5.5171  -11.7427 C.ar      1 <0>        -0.0694
     28 C21        -3.9482    4.7664  -10.5917 C.ar      1 <0>        -0.1567
     29 C22        -3.8359    7.6952  -12.9323 C.2       1 <0>         0.4889
     30 O2         -4.1414    7.1697  -13.9843 O.co2     1 <0>        -0.6325
     31 H1          3.4377    0.4765   -0.5276 H         1 <0>         0.1337
     32 H2          2.0408    2.5200   -0.4028 H         1 <0>         0.1295
     33 H3          2.2065   -1.7941   -0.4182 H         1 <0>         0.1859
     34 H4         -1.6538    2.1238    0.4330 H         1 <0>         0.1174
     35 H5         -0.3885    3.3710    0.3252 H         1 <0>         0.1053
     36 H6          0.7498    4.4838   -1.0522 H         1 <0>         0.1058
     37 H7         -0.4810    6.3770   -3.1060 H         1 <0>         0.0857
     38 H8         -0.8929    6.3130   -1.3755 H         1 <0>         0.0726
     39 H9          1.4536    6.8675   -0.7965 H         1 <0>         0.0649
     40 H10         0.7382    8.1230   -1.8358 H         1 <0>         0.0749
     41 H11         3.0218    7.5306   -2.5992 H         1 <0>         0.0694
     42 H12         1.8050    7.0880   -3.8205 H         1 <0>         0.0712
     43 H13         3.0358    5.1949   -1.7667 H         1 <0>         0.0645
     44 H14         3.4477    5.2589   -3.4972 H         1 <0>         0.0742
     45 H15         1.8166    3.4488   -3.0369 H         1 <0>         0.0723
     46 H16         1.1012    4.7044   -4.0762 H         1 <0>         0.0850
     47 H17        -2.4408    3.1021   -6.1588 H         1 <0>         0.1273
     48 H18        -3.5616    4.2999   -5.4679 H         1 <0>         0.1289
     49 H19        -4.1203    3.8555   -8.0954 H         1 <0>         0.4105
     50 H20        -3.0630    7.2006   -8.4050 H         1 <0>         0.1278
     51 H21        -3.1900    8.5491  -10.4543 H         1 <0>         0.1346
     52 H22        -4.2983    5.0480  -12.6767 H         1 <0>         0.1317
     53 H23        -4.1587    3.7075  -10.6230 H         1 <0>         0.1199
     54 O3         -3.5723    9.0160  -12.8906 O.co2     1 <0>        -0.7542
@<TRIPOS>BOND
     1    1    5 2
     2    1    2 1
     3    1   31 1
     4    2    3 2
     5    2   32 1
     6    3    4 1
     7    3    6 1
     8    4    5 1
     9    5   33 1
    10    6    7 1
    11    6   34 1
    12    6   35 1
    13    7   11 1
    14    7    8 2
    15    8    9 1
    16    9   10 2
    17   10   11 1
    18   10   18 1
    19   11   12 1
    20   12   17 1
    21   12   13 1
    22   12   36 1
    23   13   14 1
    24   13   37 1
    25   13   38 1
    26   14   15 1
    27   14   39 1
    28   14   40 1
    29   15   16 1
    30   15   41 1
    31   15   42 1
    32   16   17 1
    33   16   43 1
    34   16   44 1
    35   17   45 1
    36   17   46 1
    37   18   19 1
    38   19   20 1
    39   19   47 1
    40   19   48 1
    41   20   21 2
    42   20   22 am
    43   22   23 1
    44   22   49 1
    45   23   28 ar
    46   23   24 ar
    47   24   25 ar
    48   24   50 1
    49   25   26 ar
    50   25   51 1
    51   26   27 ar
    52   26   29 1
    53   27   28 ar
    54   27   52 1
    55   28   53 1
    56   29   30 2
    57   29   54 1
@<TRIPOS>MOLECULE
ZINC34923108
   56    59     0     0     0
SMALL
USER_CHARGES

@<TRIPOS>ATOM
      1 C1          0.1227    1.0807    0.1811 C.3       1 <0>        -0.1406
      2 C2          0.3228   -0.4320    0.0690 C.3       1 <0>        -0.0741
      3 C3          0.9217   -0.7613   -1.2741 C.2       1 <0>         0.2582
      4 C4          2.2914   -0.8915   -1.4013 C.2       1 <0>        -0.3750
      5 C5          2.8441   -1.2232   -2.7695 C.3       1 <0>         0.2758
      6 H1          3.4107   -2.1506   -2.6866 H         1 <0>         0.0776
      7 N1          1.8626   -1.3836   -3.8752 N.pl3     1 <0>        -0.5209
      8 C6          2.1384   -1.6844   -5.1942 C.2       1 <0>         0.2319
      9 C7          1.0940   -1.7865   -6.0455 C.2       1 <0>        -0.3053
     10 S1         -0.2896   -1.4546   -4.9731 S.3       1 <0>         0.1238
     11 C8          0.5486   -1.2133   -3.5392 C.2       1 <0>         0.3240
     12 N2          0.1321   -0.9291   -2.3223 N.2       1 <0>        -0.5907
     13 C9          3.5193   -1.8860   -5.6560 C.2       1 <0>        -0.4669
     14 C10         3.7542   -2.3018   -6.9154 C.2       1 <0>         0.5026
     15 O1          2.7268   -2.4274   -7.7903 O.3       1 <0>        -0.7002
     16 N3          5.0454   -2.6010   -7.3162 N.pl3     1 <0>        -0.7572
     17 C11         5.3010   -3.0533   -8.6860 C.3       1 <0>         0.1486
     18 C12         6.7979   -3.3135   -8.8662 C.3       1 <0>        -0.0513
     19 C13         7.0608   -3.7787  -10.2753 C.2       1 <0>        -0.1181
     20 C14         7.3521   -3.0440  -11.3765 C.2       1 <0>        -0.1671
     21 C15         7.5577   -3.6923  -12.5798 C.2       1 <0>        -0.1510
     22 C16         7.4620   -5.0437  -12.6231 C.2       1 <0>        -0.1858
     23 S2          7.0771   -5.4412  -10.9257 S.3       1 <0>         0.0314
     24 C17         3.8058   -0.1302   -3.1587 C.ar      1 <0>        -0.1120
     25 C18         3.3590    0.9574   -3.8853 C.ar      1 <0>        -0.0547
     26 C19         4.2409    1.9601   -4.2425 C.ar      1 <0>        -0.1245
     27 C20         5.5708    1.8764   -3.8735 C.ar      1 <0>        -0.0943
     28 C21         6.0196    0.7903   -3.1467 C.ar      1 <0>        -0.1554
     29 C22         5.1359   -0.2123   -2.7838 C.ar      1 <0>         0.1035
     30 F1          5.5727   -1.2723   -2.0691 F         1 <0>        -0.1372
     31 C23         3.1395   -0.7216   -0.3003 C.2       1 <0>         0.5629
     32 O2          3.6096   -1.6950    0.2628 O.2       1 <0>        -0.5089
     33 O3          3.4368    0.5217    0.1381 O.3       1 <0>        -0.3508
     34 C24         4.3083    0.6206    1.2662 C.3       1 <0>         0.0322
     35 H2          1.0847    1.5830    0.0792 H         1 <0>         0.0620
     36 H3         -0.5486    1.4180   -0.6086 H         1 <0>         0.0608
     37 H4         -0.3105    1.3189    1.1525 H         1 <0>         0.0572
     38 H5          0.9941   -0.7692    0.8587 H         1 <0>         0.0686
     39 H6         -0.6392   -0.9342    0.1708 H         1 <0>         0.0848
     40 H7          1.0972   -2.0105   -7.1020 H         1 <0>         0.2365
     41 H8          4.3454   -1.7007   -4.9856 H         1 <0>         0.0823
     42 H9          5.7807   -2.5111   -6.6900 H         1 <0>         0.3849
     43 H10         4.7471   -3.9730   -8.8742 H         1 <0>         0.0545
     44 H11         4.9786   -2.2847   -9.3885 H         1 <0>         0.0552
     45 H12         7.3518   -2.3938   -8.6780 H         1 <0>         0.0887
     46 H13         7.1202   -4.0820   -8.1637 H         1 <0>         0.0815
     47 H14         7.4221   -1.9680  -11.3147 H         1 <0>         0.1326
     48 H15         7.7908   -3.1305  -13.4722 H         1 <0>         0.1306
     49 H16         7.5896   -5.7080  -13.4651 H         1 <0>         0.1824
     50 H17         2.3205    1.0236   -4.1745 H         1 <0>         0.1189
     51 H18         3.8909    2.8093   -4.8106 H         1 <0>         0.1256
     52 H19         6.2590    2.6601   -4.1537 H         1 <0>         0.1279
     53 H20         7.0585    0.7250   -2.8588 H         1 <0>         0.1304
     54 H21         3.8597    0.1093    2.1179 H         1 <0>         0.0551
     55 H22         5.2657    0.1575    1.0274 H         1 <0>         0.0548
     56 H23         4.4643    1.6706    1.5138 H         1 <0>         0.0942
@<TRIPOS>BOND
     1    1    2 1
     2    1   35 1
     3    1   36 1
     4    1   37 1
     5    2    3 1
     6    2   38 1
     7    2   39 1
     8    3   12 1
     9    3    4 2
    10    4    5 1
    11    4   31 1
    12    5    6 1
    13    5    7 1
    14    5   24 1
    15    7   11 1
    16    7    8 1
    17    8    9 2
    18    8   13 1
    19    9   10 1
    20    9   40 1
    21   10   11 1
    22   11   12 2
    23   13   14 2
    24   13   41 1
    25   14   15 1
    26   14   16 1
    27   16   17 1
    28   16   42 1
    29   17   18 1
    30   17   43 1
    31   17   44 1
    32   18   19 1
    33   18   45 1
    34   18   46 1
    35   19   23 1
    36   19   20 2
    37   20   21 1
    38   20   47 1
    39   21   22 2
    40   21   48 1
    41   22   23 1
    42   22   49 1
    43   24   29 ar
    44   24   25 ar
    45   25   26 ar
    46   25   50 1
    47   26   27 ar
    48   26   51 1
    49   27   28 ar
    50   27   52 1
    51   28   29 ar
    52   28   53 1
    53   29   30 1
    54   31   32 2
    55   31   33 1
    56   33   34 1
    57   34   54 1
    58   34   55 1
    59   34   56 1
@<TRIPOS>MOLECULE
ZINC35692994
   50    53     0     0     0
SMALL
USER_CHARGES

@<TRIPOS>ATOM
      1 C1          0.7378   -1.2260   -3.0181 C.3       1 <0>        -0.1491
      2 C2          0.3067   -1.3495   -1.5553 C.3       1 <0>         0.0605
      3 O1         -1.0863   -1.6623   -1.4940 O.3       1 <0>        -0.3472
      4 C3         -1.6520   -1.7055   -0.2675 C.2       1 <0>         0.5544
      5 O2         -1.0010   -1.3957    0.7152 O.2       1 <0>        -0.4965
      6 C4         -2.9861   -2.1063   -0.1255 C.2       1 <0>        -0.2986
      7 C5         -3.3382   -3.4418   -0.1644 C.2       1 <0>         0.1672
      8 N1         -4.6029   -3.8059   -0.0288 N.2       1 <0>        -0.5754
      9 C6         -5.6092   -2.9749    0.1490 C.2       1 <0>         0.3187
     10 N2         -5.4738   -1.6165    0.2168 N.pl3     1 <0>        -0.5170
     11 C7         -4.0887   -1.0921    0.0817 C.3       1 <0>         0.2651
     12 H1         -3.8540   -0.5199    0.9793 H         1 <0>         0.0969
     13 C8         -4.0696   -0.1407   -1.0869 C.ar      1 <0>        -0.0781
     14 C9         -4.8475   -0.3977   -2.2003 C.ar      1 <0>        -0.0700
     15 C10        -4.8300    0.4748   -3.2722 C.ar      1 <0>        -0.1090
     16 C11        -4.0347    1.6050   -3.2315 C.ar      1 <0>        -0.1063
     17 C12        -3.2565    1.8630   -2.1190 C.ar      1 <0>        -0.1111
     18 C13        -3.2779    0.9929   -1.0432 C.ar      1 <0>        -0.0255
     19 Cl1        -2.3058    1.3197    0.3574 Cl        1 <0>        -0.0605
     20 C14        -6.6262   -0.8803    0.4074 C.2       1 <0>         0.2348
     21 C15        -7.7918   -1.5561    0.5115 C.2       1 <0>        -0.2995
     22 S1         -7.2548   -3.2461    0.3380 S.3       1 <0>         0.1621
     23 C16        -6.5866    0.5865    0.4946 C.2       1 <0>        -0.4664
     24 C17        -7.6974    1.2716    0.8277 C.2       1 <0>         0.5063
     25 O3         -8.8119    0.6068    1.2185 O.3       1 <0>        -0.6992
     26 N3         -7.7006    2.6551    0.7709 N.pl3     1 <0>        -0.7236
     27 C18        -8.8693    3.4046    1.2385 C.3       1 <0>         0.1202
     28 C19        -9.4159    4.5032    0.3246 C.3       1 <0>        -0.2102
     29 C20        -8.6647    4.8761    1.6043 C.3       1 <0>        -0.2075
     30 C21        -2.2745   -4.4908   -0.3629 C.3       1 <0>         0.5227
     31 F1         -1.0128   -3.8872   -0.3320 F         1 <0>        -0.1668
     32 F2         -2.3615   -5.4423    0.6589 F         1 <0>        -0.1639
     33 F3         -2.4619   -5.1165   -1.6001 F         1 <0>        -0.1643
     34 H2          1.7772   -0.9010   -3.0644 H         1 <0>         0.0745
     35 H3          0.6375   -2.1939   -3.5093 H         1 <0>         0.0639
     36 H4          0.1058   -0.4953   -3.5227 H         1 <0>         0.0652
     37 H5          0.8787   -2.1425   -1.0736 H         1 <0>         0.0634
     38 H6          0.4901   -0.4057   -1.0416 H         1 <0>         0.0649
     39 H7         -5.4687   -1.2805   -2.2329 H         1 <0>         0.1193
     40 H8         -5.4377    0.2735   -4.1421 H         1 <0>         0.1270
     41 H9         -4.0212    2.2862   -4.0695 H         1 <0>         0.1291
     42 H10        -2.6351    2.7457   -2.0874 H         1 <0>         0.1306
     43 H11        -8.7898   -1.1716    0.6614 H         1 <0>         0.2351
     44 H12        -5.6669    1.1149    0.2915 H         1 <0>         0.0873
     45 H13        -6.9291    3.1280    0.4216 H         1 <0>         0.3867
     46 H14        -9.5885    2.8350    1.8270 H         1 <0>         0.1293
     47 H15        -8.9059    4.6683   -0.6245 H         1 <0>         0.0878
     48 H16       -10.4950    4.6565    0.3116 H         1 <0>         0.0913
     49 H17        -9.2496    5.2747    2.4332 H         1 <0>         0.0932
     50 H18        -7.6606    5.2865    1.4970 H         1 <0>         0.0879
@<TRIPOS>BOND
     1    1    2 1
     2    1   34 1
     3    1   35 1
     4    1   36 1
     5    2    3 1
     6    2   37 1
     7    2   38 1
     8    3    4 1
     9    4    5 2
    10    4    6 1
    11    6   11 1
    12    6    7 2
    13    7    8 1
    14    7   30 1
    15    8    9 2
    16    9   22 1
    17    9   10 1
    18   10   11 1
    19   10   20 1
    20   11   12 1
    21   11   13 1
    22   13   18 ar
    23   13   14 ar
    24   14   15 ar
    25   14   39 1
    26   15   16 ar
    27   15   40 1
    28   16   17 ar
    29   16   41 1
    30   17   18 ar
    31   17   42 1
    32   18   19 1
    33   20   21 2
    34   20   23 1
    35   21   22 1
    36   21   43 1
    37   23   24 2
    38   23   44 1
    39   24   25 1
    40   24   26 1
    41   26   27 1
    42   26   45 1
    43   27   29 1
    44   27   28 1
    45   27   46 1
    46   28   29 1
    47   28   47 1
    48   28   48 1
    49   29   49 1
    50   29   50 1
    51   30   31 1
    52   30   32 1
    53   30   33 1
@<TRIPOS>MOLECULE
ZINC36329125
   47    49     0     0     0
SMALL
USER_CHARGES

@<TRIPOS>ATOM
      1 C1          0.0584    1.5462    0.0299 C.3       1 <0>        -0.1233
      2 C2          0.1277    0.0411   -0.0020 C.ar      1 <0>         0.0170
      3 C3          0.0226   -0.6307   -1.2025 C.ar      1 <0>        -0.1542
      4 C4          0.0855   -2.0123   -1.2335 C.ar      1 <0>         0.0132
      5 C5          0.2546   -2.7298   -0.0623 C.ar      1 <0>        -0.6279
      6 C6          0.3616   -2.0706    1.1446 C.ar      1 <0>         0.0182
      7 C7          0.3042   -0.6762    1.1823 C.ar      1 <0>        -0.1741
      8 C8          0.4237    0.0372    2.4714 C.2       1 <0>         0.5701
      9 O1          0.4897    1.2509    2.4906 O.2       1 <0>        -0.5145
     10 N1          0.4596   -0.6580    3.6254 N.am      1 <0>        -0.6725
     11 C9          0.4634    0.0193    4.8510 C.ar      1 <0>         0.1415
     12 C10         1.1705   -0.4980    5.9285 C.ar      1 <0>        -0.1084
     13 C11         1.1737    0.1705    7.1367 C.ar      1 <0>        -0.0994
     14 C12         0.4708    1.3586    7.2744 C.ar      1 <0>         0.0815
     15 C13        -0.2357    1.8760    6.1985 C.ar      1 <0>        -0.1682
     16 C14        -0.2352    1.2116    4.9880 C.ar      1 <0>        -0.0807
     17 O2          0.4741    2.0160    8.4646 O.3       1 <0>        -0.3101
     18 C15        -0.2709    3.2334    8.5353 C.3       1 <0>         0.6034
     19 F1         -1.6163    2.9739    8.2529 F         1 <0>        -0.1655
     20 F2         -0.1600    3.7739    9.8209 F         1 <0>        -0.1333
     21 F3          0.2344    4.1442    7.6013 F         1 <0>        -0.1648
     22 S1          0.3329   -4.4893   -0.1129 S.o2      1 <0>         2.6036
     23 O3         -0.0520   -4.9501    1.1751 O.2       1 <0>        -1.0269
     24 O4         -0.3395   -4.8918   -1.2983 O.2       1 <0>        -1.0246
     25 N2          1.9244   -4.9032   -0.3076 N.2       1 <0>        -1.0818
     26 C16         2.2925   -6.2503   -0.3821 C.ar      1 <0>         0.2506
     27 C17         1.3243   -7.2418   -0.2988 C.ar      1 <0>        -0.2455
     28 C18         1.6909   -8.5717   -0.3732 C.ar      1 <0>        -0.0745
     29 C19         3.0206   -8.9170   -0.5301 C.ar      1 <0>        -0.2005
     30 C20         3.9888   -7.9332   -0.6132 C.ar      1 <0>        -0.1142
     31 C21         3.6287   -6.5998   -0.5457 C.ar      1 <0>         0.0267
     32 F4          4.5738   -5.6384   -0.6328 F         1 <0>        -0.1467
     33 H1          1.0683    1.9563    0.0377 H         1 <0>         0.0804
     34 H2         -0.4723    1.9042   -0.8523 H         1 <0>         0.0614
     35 H3         -0.4708    1.8666    0.9273 H         1 <0>         0.0945
     36 H4         -0.1095   -0.0766   -2.1202 H         1 <0>         0.1370
     37 H5          0.0019   -2.5333   -2.1758 H         1 <0>         0.1444
     38 H6          0.4935   -2.6317    2.0579 H         1 <0>         0.1381
     39 H7          0.4828   -1.6276    3.6071 H         1 <0>         0.4171
     40 H8          1.7175   -1.4231    5.8215 H         1 <0>         0.1452
     41 H9          1.7233   -0.2319    7.9748 H         1 <0>         0.1439
     42 H10        -0.7827    2.8009    6.3065 H         1 <0>         0.1357
     43 H11        -0.7815    1.6170    4.1491 H         1 <0>         0.1453
     44 H12         0.2854   -6.9737   -0.1755 H         1 <0>         0.1049
     45 H13         0.9376   -9.3430   -0.3084 H         1 <0>         0.1091
     46 H14         3.3037   -9.9577   -0.5876 H         1 <0>         0.1116
     47 H15         5.0265   -8.2063   -0.7353 H         1 <0>         0.1171
@<TRIPOS>BOND
     1    1    2 1
     2    1   33 1
     3    1   34 1
     4    1   35 1
     5    2    7 ar
     6    2    3 ar
     7    3    4 ar
     8    3   36 1
     9    4    5 ar
    10    4   37 1
    11    5    6 ar
    12    5   22 1
    13    6    7 ar
    14    6   38 1
    15    7    8 1
    16    8    9 2
    17    8   10 am
    18   10   11 1
    19   10   39 1
    20   11   16 ar
    21   11   12 ar
    22   12   13 ar
    23   12   40 1
    24   13   14 ar
    25   13   41 1
    26   14   15 ar
    27   14   17 1
    28   15   16 ar
    29   15   42 1
    30   16   43 1
    31   17   18 1
    32   18   19 1
    33   18   20 1
    34   18   21 1
    35   22   23 2
    36   22   24 2
    37   22   25 1
    38   25   26 1
    39   26   31 ar
    40   26   27 ar
    41   27   28 ar
    42   27   44 1
    43   28   29 ar
    44   28   45 1
    45   29   30 ar
    46   29   46 1
    47   30   31 ar
    48   30   47 1
    49   31   32 1
@<TRIPOS>MOLECULE
ZINC02250010
   51    55     0     0     0
SMALL
USER_CHARGES

@<TRIPOS>ATOM
      1 C1         -0.0167    1.3781    0.0096 C.ar      1 <0>        -0.1366
      2 C2          1.1709    2.0855    0.0021 C.ar      1 <0>        -0.1215
      3 C3          2.3773    1.4107   -0.0130 C.ar      1 <0>        -0.1071
      4 C4          2.3960    0.0285   -0.0201 C.ar      1 <0>        -0.0331
      5 C5          1.2084   -0.6789   -0.0117 C.ar      1 <0>        -0.1070
      6 C6          0.0021   -0.0041    0.0020 C.ar      1 <0>        -0.1215
      7 C7          3.7112   -0.7071   -0.0376 C.3       1 <0>        -0.0497
      8 C8          4.1644   -0.9594    1.3773 C.2       1 <0>         0.4254
      9 O1          5.3236   -1.6076    1.6083 O.3       1 <0>        -0.6786
     10 N1          3.4367   -0.5515    2.3763 N.2       1 <0>        -0.6353
     11 C9          3.8473   -0.7800    3.6578 C.2       1 <0>         0.5041
     12 N2          4.9489   -1.3894    4.0043 N.2       1 <0>        -0.2945
     13 N3          5.0109   -1.4254    5.3986 N.pl3     1 <0>        -0.4488
     14 C10         5.9908   -1.9688    6.3488 C.3       1 <0>         0.2846
     15 H1          6.0986   -3.0352    6.1504 H         1 <0>         0.0730
     16 C11         5.6708   -1.7942    7.8219 C.2       1 <0>        -0.3182
     17 C12         4.5242   -1.1606    8.1354 C.2       1 <0>         0.2172
     18 N4          3.6842   -0.6952    7.1776 N.2       1 <0>        -0.6550
     19 C13         3.8957   -0.8096    5.8861 C.2       1 <0>         0.5775
     20 N5          3.1677   -0.3989    4.7983 N.pl3     1 <0>        -0.6172
     21 C14         4.1711   -0.9676    9.5637 C.ar      1 <0>        -0.0178
     22 C15         5.0228   -1.4336   10.5634 C.ar      1 <0>        -0.0951
     23 C16         4.6900   -1.2518   11.8902 C.ar      1 <0>        -0.1153
     24 C17         3.5120   -0.6080   12.2288 C.ar      1 <0>        -0.0372
     25 C18         2.6626   -0.1433   11.2393 C.ar      1 <0>        -0.1181
     26 C19         2.9896   -0.3148    9.9097 C.ar      1 <0>        -0.0706
     27 Cl1         3.0984   -0.3833   13.8998 Cl        1 <0>        -0.0821
     28 C20         7.3189   -1.3101    6.0785 C.ar      1 <0>        -0.0905
     29 C21         7.3731    0.0392    5.7824 C.ar      1 <0>        -0.0554
     30 C22         8.5905    0.6445    5.5348 C.ar      1 <0>        -0.1516
     31 C23         9.7563   -0.1009    5.5833 C.ar      1 <0>         0.0900
     32 C24         9.7008   -1.4522    5.8800 C.ar      1 <0>        -0.1538
     33 C25         8.4827   -2.0543    6.1324 C.ar      1 <0>        -0.0797
     34 F1         10.9470    0.4896    5.3410 F         1 <0>        -0.1455
     35 H2         -0.9591    1.9053    0.0259 H         1 <0>         0.1113
     36 H3          1.1563    3.1654    0.0076 H         1 <0>         0.1125
     37 H4          3.3051    1.9634   -0.0196 H         1 <0>         0.1135
     38 H5          1.2231   -1.7588   -0.0176 H         1 <0>         0.1136
     39 H6         -0.9258   -0.5567    0.0082 H         1 <0>         0.1126
     40 H7          3.5884   -1.6586   -0.5549 H         1 <0>         0.0863
     41 H8          4.4573   -0.1052   -0.5563 H         1 <0>         0.0861
     42 H9          6.3359   -2.1636    8.5885 H         1 <0>         0.1413
     43 H10         2.3215    0.0745    4.8253 H         1 <0>         0.4314
     44 H11         5.9416   -1.9365   10.3002 H         1 <0>         0.1362
     45 H12         5.3494   -1.6125   12.6657 H         1 <0>         0.1318
     46 H13         1.7448    0.3583   11.5084 H         1 <0>         0.1311
     47 H14         2.3285    0.0520    9.1384 H         1 <0>         0.1451
     48 H15         6.4636    0.6204    5.7443 H         1 <0>         0.1180
     49 H16         8.6326    1.6986    5.3032 H         1 <0>         0.1299
     50 H17        10.6095   -2.0348    5.9178 H         1 <0>         0.1327
     51 H18         8.4396   -3.1073    6.3682 H         1 <0>         0.1318
@<TRIPOS>BOND
     1    1    6 ar
     2    1    2 ar
     3    1   35 1
     4    2    3 ar
     5    2   36 1
     6    3    4 ar
     7    3   37 1
     8    4    5 ar
     9    4    7 1
    10    5    6 ar
    11    5   38 1
    12    6   39 1
    13    7    8 1
    14    7   40 1
    15    7   41 1
    16    8    9 1
    17    8   10 2
    18   10   11 1
    19   11   20 1
    20   11   12 2
    21   12   13 1
    22   13   19 1
    23   13   14 1
    24   14   15 1
    25   14   16 1
    26   14   28 1
    27   16   17 2
    28   16   42 1
    29   17   18 1
    30   17   21 1
    31   18   19 2
    32   19   20 1
    33   20   43 1
    34   21   26 ar
    35   21   22 ar
    36   22   23 ar
    37   22   44 1
    38   23   24 ar
    39   23   45 1
    40   24   25 ar
    41   24   27 1
    42   25   26 ar
    43   25   46 1
    44   26   47 1
    45   28   33 ar
    46   28   29 ar
    47   29   30 ar
    48   29   48 1
    49   30   31 ar
    50   30   49 1
    51   31   32 ar
    52   31   34 1
    53   32   33 ar
    54   32   50 1
    55   33   51 1
@<TRIPOS>MOLECULE
ZINC20617254
   66    69     0     0     0
SMALL
USER_CHARGES
[(2Z)-3-[(2,4-dimethoxyphenyl)carbamoyl]-2-(3-methoxyphenyl)imino-8-methyl-pyrano[3,2-d]pyridin-5-yl]methyl acetate
@<TRIPOS>ATOM
      1 C1          2.3399    5.4225    0.4794 C.3       1 <0>        -0.1189
      2 C2          2.3550    3.9420    0.1984 C.ar      1 <0>         0.1747
      3 C3          1.1691    3.2218    0.2282 C.ar      1 <0>         0.0586
      4 C4          1.2086    1.8404   -0.0401 C.ar      1 <0>        -0.1111
      5 C5         -0.0322    1.0631   -0.0185 C.2       1 <0>         0.1427
      6 C6         -1.2172    1.7654   -0.0039 C.2       1 <0>        -0.2413
      7 C7         -1.1297    3.2396   -0.0021 C.2       1 <0>         0.5296
      8 N1         -2.1066    3.9726   -0.4894 N.pl3     1 <0>        -0.5089
      9 C8         -1.9641    5.3296   -0.5788 C.ar      1 <0>         0.0473
     10 C9         -2.2614    6.1401    0.5204 C.ar      1 <0>        -0.1198
     11 C10        -2.1113    7.5081    0.4278 C.ar      1 <0>        -0.0598
     12 C11        -1.6778    8.0825   -0.7534 C.ar      1 <0>        -0.1642
     13 C12        -1.3854    7.2862   -1.8527 C.ar      1 <0>         0.1493
     14 C13        -1.5267    5.9114   -1.7700 C.ar      1 <0>        -0.1209
     15 O1         -0.9599    7.8567   -3.0105 O.3       1 <0>        -0.3068
     16 C14        -0.8367    9.2803   -3.0252 C.3       1 <0>         0.0167
     17 O2         -0.0131    3.8177    0.5107 O.3       1 <0>        -0.1850
     18 C15        -2.5190    1.0739    0.0149 C.2       1 <0>         0.5712
     19 O3         -2.5619   -0.1416    0.0178 O.2       1 <0>        -0.4716
     20 N2         -3.6615    1.7887    0.0289 N.am      1 <0>        -0.6585
     21 C16        -4.8966    1.1342    0.1402 C.ar      1 <0>         0.0488
     22 C17        -5.0808   -0.1067   -0.4520 C.ar      1 <0>        -0.0307
     23 C18        -6.2961   -0.7540   -0.3378 C.ar      1 <0>        -0.2246
     24 C19        -7.3379   -0.1603    0.3600 C.ar      1 <0>         0.1778
     25 C20        -7.1606    1.0826    0.9490 C.ar      1 <0>        -0.2264
     26 C21        -5.9419    1.7318    0.8409 C.ar      1 <0>         0.1570
     27 O4         -5.7661    2.9507    1.4173 O.3       1 <0>        -0.3237
     28 C22        -6.8812    3.5029    2.1199 C.3       1 <0>         0.0199
     29 O5         -8.5343   -0.7976    0.4662 O.3       1 <0>        -0.3095
     30 C23        -8.6472   -2.0748   -0.1647 C.3       1 <0>         0.0191
     31 C24         2.4450    1.2476   -0.3230 C.ar      1 <0>        -0.0644
     32 C25         3.5706    2.0450   -0.3288 C.ar      1 <0>         0.1417
     33 N3          3.4941    3.3385   -0.0746 N.ar      1 <0>        -0.4145
     34 C26         2.5438   -0.2276   -0.6149 C.3       1 <0>         0.0948
     35 O6          3.9291   -0.5782   -0.8727 O.3       1 <0>        -0.3560
     36 C27         4.1902   -1.8650   -1.1516 C.2       1 <0>         0.4680
     37 O7          3.2911   -2.6716   -1.1793 O.2       1 <0>        -0.5011
     38 C28         5.6048   -2.3035   -1.4300 C.3       1 <0>        -0.1528
     39 H1          1.3088    5.7462    0.6846 H         1 <0>         0.0833
     40 H2          2.7276    5.9656   -0.3951 H         1 <0>         0.1016
     41 H3          2.9722    5.6362    1.3538 H         1 <0>         0.1042
     42 H4         -0.0189   -0.0168   -0.0185 H         1 <0>         0.2026
     43 H5         -2.6044    5.6953    1.4428 H         1 <0>         0.1424
     44 H6         -2.3370    8.1332    1.2791 H         1 <0>         0.1505
     45 H7         -1.5666    9.1546   -0.8211 H         1 <0>         0.1490
     46 H8         -1.2995    5.2912   -2.6245 H         1 <0>         0.1469
     47 H9         -0.4862    9.6078   -4.0151 H         1 <0>         0.1147
     48 H10        -0.1134    9.5937   -2.2580 H         1 <0>         0.0656
     49 H11        -1.8157    9.7352   -2.8138 H         1 <0>         0.0657
     50 H12        -3.6250    2.8855   -0.0470 H         1 <0>         0.3959
     51 H13        -4.2725   -0.5687   -0.9995 H         1 <0>         0.1524
     52 H14        -6.4366   -1.7218   -0.7960 H         1 <0>         0.1426
     53 H15        -7.9724    1.5442    1.4914 H         1 <0>         0.1483
     54 H16        -6.6045    4.4838    2.5338 H         1 <0>         0.1080
     55 H17        -7.1695    2.8275    2.9388 H         1 <0>         0.0661
     56 H18        -7.7279    3.6225    1.4279 H         1 <0>         0.0660
     57 H19        -9.6586   -2.4758   -0.0024 H         1 <0>         0.1098
     58 H20        -7.9060   -2.7637    0.2667 H         1 <0>         0.0629
     59 H21        -8.4639   -1.9680   -1.2441 H         1 <0>         0.0626
     60 H22         4.5321    1.6033   -0.5453 H         1 <0>         0.1976
     61 H23         2.1761   -0.7981    0.2508 H         1 <0>         0.1086
     62 H24         1.9341   -0.4682   -1.4983 H         1 <0>         0.1067
     63 H25         5.6199   -3.3839   -1.6359 H         1 <0>         0.1105
     64 H26         6.2345   -2.0883   -0.5541 H         1 <0>         0.1076
     65 H27         5.9925   -1.7583   -2.3032 H         1 <0>         0.1073
     66 H28        -3.0385    3.4941   -0.8251 H         1 <0>         0.4739
@<TRIPOS>BOND
     1    1    2 1
     2    1   39 1
     3    1   40 1
     4    1   41 1
     5    2   33 ar
     6    2    3 ar
     7    3   17 1
     8    3    4 ar
     9    4    5 1
    10    4   31 ar
    11    5    6 2
    12    5   42 1
    13    6    7 1
    14    6   18 1
    15    7    8 2
    16    7   17 1
    17    8    9 1
    18    8   66 1
    19    9   14 ar
    20    9   10 ar
    21   10   11 ar
    22   10   43 1
    23   11   12 ar
    24   11   44 1
    25   12   13 ar
    26   12   45 1
    27   13   14 ar
    28   13   15 1
    29   14   46 1
    30   15   16 1
    31   16   47 1
    32   16   48 1
    33   16   49 1
    34   18   19 2
    35   18   20 am
    36   20   21 1
    37   20   50 1
    38   21   26 ar
    39   21   22 ar
    40   22   23 ar
    41   22   51 1
    42   23   24 ar
    43   23   52 1
    44   24   25 ar
    45   24   29 1
    46   25   26 ar
    47   25   53 1
    48   26   27 1
    49   27   28 1
    50   28   54 1
    51   28   55 1
    52   28   56 1
    53   29   30 1
    54   30   57 1
    55   30   58 1
    56   30   59 1
    57   31   32 ar
    58   31   34 1
    59   32   33 ar
    60   32   60 1
    61   34   35 1
    62   34   61 1
    63   34   62 1
    64   35   36 1
    65   36   37 2
    66   36   38 1
    67   38   63 1
    68   38   64 1
    69   38   65 1
@<TRIPOS>MOLECULE
ZINC35778135
   70    73     0     0     0
SMALL
USER_CHARGES

@<TRIPOS>ATOM
      1 C1         -0.1874   -6.6433    2.1848 C.3       1 <0>         0.0839
      2 N1         -0.4877   -5.9756    0.9159 N.pl3     1 <0>        -0.3496
      3 C2          0.0578   -4.8115    0.4784 C.2       1 <0>         0.2914
      4 C3         -0.4805   -4.5331   -0.7363 C.2       1 <0>        -0.2921
      5 C4         -1.3866   -5.5632   -1.0518 C.2       1 <0>         0.1505
      6 N2         -1.3831   -6.4292   -0.0609 N.2       1 <0>        -0.2306
      7 C5         -2.1994   -5.6595   -2.2900 C.ar      1 <0>        -0.0432
      8 C6         -2.8450   -4.5315   -2.7919 C.ar      1 <0>        -0.1066
      9 C7         -3.5996   -4.6267   -3.9436 C.ar      1 <0>        -0.1133
     10 C8         -3.7159   -5.8392   -4.5991 C.ar      1 <0>        -0.0963
     11 C9         -3.0774   -6.9623   -4.1049 C.ar      1 <0>        -0.1110
     12 C10        -2.3149   -6.8769   -2.9576 C.ar      1 <0>        -0.0871
     13 C11        -0.1649   -3.3348   -1.5939 C.3       1 <0>         0.0737
     14 N3          1.0669   -3.5871   -2.3536 N.4       1 <0>        -0.3735
     15 C12         1.4138   -2.3923   -3.1347 C.3       1 <0>        -0.0258
     16 C13         1.6550   -1.2156   -2.1870 C.3       1 <0>         0.0288
     17 O1          2.7524   -1.5173   -1.3228 O.3       1 <0>        -0.3958
     18 C14         3.0625   -0.4777   -0.3927 C.3       1 <0>         0.0306
     19 C15         0.8580   -4.7224   -3.2620 C.3       1 <0>        -0.0440
     20 C16         2.1936   -5.1250   -3.8906 C.3       1 <0>         0.0933
     21 H1          2.9391   -5.2568   -3.1065 H         1 <0>         0.1293
     22 C17         2.0214   -6.4382   -4.6567 C.3       1 <0>         0.0350
     23 O2          3.2914   -6.8745   -5.1455 O.3       1 <0>        -0.3679
     24 C18         3.2419   -8.0994   -5.8797 C.3       1 <0>         0.1484
     25 C19         4.6286   -8.4626   -6.3448 C.2       1 <0>        -0.0345
     26 C20         5.5133   -9.2161   -5.6674 C.2       1 <0>        -0.1752
     27 C21         6.6761   -9.3011   -6.4672 C.2       1 <0>        -0.2192
     28 C22         6.4323   -8.5945   -7.5855 C.2       1 <0>        -0.0198
     29 O3          5.1886   -8.0937   -7.5084 O.3       1 <0>        -0.1713
     30 O4          2.6243   -4.1016   -4.7903 O.3       1 <0>        -0.5370
     31 O5          0.9764   -4.0606    1.1378 O.3       1 <0>        -0.2316
     32 C23         0.5259   -3.1392    2.0295 C.ar      1 <0>         0.0976
     33 C24        -0.8276   -3.0623    2.3250 C.ar      1 <0>        -0.1759
     34 C25        -1.2833   -2.1253    3.2320 C.ar      1 <0>        -0.0686
     35 C26        -0.3912   -1.2636    3.8452 C.ar      1 <0>        -0.0516
     36 C27         0.9590   -1.3386    3.5519 C.ar      1 <0>        -0.0701
     37 C28         1.4196   -2.2779    2.6498 C.ar      1 <0>        -0.1152
     38 Cl1        -0.9667   -0.0862    4.9838 Cl        1 <0>        -0.0462
     39 H2          0.5870   -7.3938    2.0261 H         1 <0>         0.0959
     40 H3          0.1626   -5.9075    2.9087 H         1 <0>         0.0970
     41 H4         -1.0885   -7.1256    2.5637 H         1 <0>         0.1069
     42 H5         -2.7554   -3.5845   -2.2805 H         1 <0>         0.1259
     43 H6         -4.1005   -3.7530   -4.3336 H         1 <0>         0.1337
     44 H7         -4.3077   -5.9093   -5.4998 H         1 <0>         0.1327
     45 H8         -3.1721   -7.9067   -4.6201 H         1 <0>         0.1340
     46 H9         -1.8125   -7.7533   -2.5754 H         1 <0>         0.1301
     47 H10        -0.9881   -3.1559   -2.2855 H         1 <0>         0.1408
     48 H11        -0.0273   -2.4596   -0.9588 H         1 <0>         0.1344
     49 H12         2.3182   -2.5854   -3.7116 H         1 <0>         0.1714
     50 H13         0.5950   -2.1510   -3.8125 H         1 <0>         0.1390
     51 H14         1.8848   -0.3224   -2.7679 H         1 <0>         0.0971
     52 H15         0.7599   -1.0405   -1.5901 H         1 <0>         0.0688
     53 H16         2.1967   -0.2872    0.2414 H         1 <0>         0.0491
     54 H17         3.9059   -0.7836    0.2263 H         1 <0>         0.0985
     55 H18         3.3216    0.4309   -0.9364 H         1 <0>         0.0545
     56 H19         0.4510   -5.5650   -2.7030 H         1 <0>         0.1394
     57 H20         0.1586   -4.4355   -4.0473 H         1 <0>         0.1378
     58 H21         1.6086   -7.1959   -3.9907 H         1 <0>         0.0698
     59 H22         1.3429   -6.2832   -5.4956 H         1 <0>         0.0683
     60 H23         2.8544   -8.8916   -5.2391 H         1 <0>         0.0856
     61 H24         2.5888   -7.9789   -6.7440 H         1 <0>         0.0725
     62 H25         5.3643   -9.6688   -4.6983 H         1 <0>         0.1497
     63 H26         7.5856   -9.8314   -6.2264 H         1 <0>         0.1537
     64 H27         7.1189   -8.4566   -8.4077 H         1 <0>         0.2086
     65 H28         2.0078   -3.9303   -5.5153 H         1 <0>         0.3873
     66 H29        -1.5243   -3.7342    1.8460 H         1 <0>         0.1332
     67 H30        -2.3368   -2.0651    3.4623 H         1 <0>         0.1444
     68 H31         1.6537   -0.6649    4.0313 H         1 <0>         0.1515
     69 H32         2.4740   -2.3389    2.4241 H         1 <0>         0.1485
     70 H33         1.8181   -3.8011   -1.7148 H         1 <0>         0.4303
@<TRIPOS>BOND
     1    1    2 1
     2    1   39 1
     3    1   40 1
     4    1   41 1
     5    2    6 1
     6    2    3 1
     7    3    4 2
     8    3   31 1
     9    4    5 1
    10    4   13 1
    11    5    6 2
    12    5    7 1
    13    7   12 ar
    14    7    8 ar
    15    8    9 ar
    16    8   42 1
    17    9   10 ar
    18    9   43 1
    19   10   11 ar
    20   10   44 1
    21   11   12 ar
    22   11   45 1
    23   12   46 1
    24   13   14 1
    25   13   47 1
    26   13   48 1
    27   14   15 1
    28   14   19 1
    29   14   70 1
    30   15   16 1
    31   15   49 1
    32   15   50 1
    33   16   17 1
    34   16   51 1
    35   16   52 1
    36   17   18 1
    37   18   53 1
    38   18   54 1
    39   18   55 1
    40   19   20 1
    41   19   56 1
    42   19   57 1
    43   20   21 1
    44   20   22 1
    45   20   30 1
    46   22   23 1
    47   22   58 1
    48   22   59 1
    49   23   24 1
    50   24   25 1
    51   24   60 1
    52   24   61 1
    53   25   29 1
    54   25   26 2
    55   26   27 1
    56   26   62 1
    57   27   28 2
    58   27   63 1
    59   28   29 1
    60   28   64 1
    61   30   65 1
    62   31   32 1
    63   32   37 ar
    64   32   33 ar
    65   33   34 ar
    66   33   66 1
    67   34   35 ar
    68   34   67 1
    69   35   36 ar
    70   35   38 1
    71   36   37 ar
    72   36   68 1
    73   37   69 1
@<TRIPOS>MOLECULE
ZINC36637599
   73    76     0     0     0
SMALL
USER_CHARGES

@<TRIPOS>ATOM
      1 C1          1.0247    1.8530    1.2040 C.3       1 <0>        -0.1231
      2 C2          0.7855    0.3813    0.9847 C.ar      1 <0>        -0.0727
      3 C3          0.7100   -0.1073   -0.3118 C.ar      1 <0>        -0.0777
      4 C4          0.4906   -1.4573   -0.5149 C.ar      1 <0>        -0.0704
      5 C5          0.3512   -2.2913    0.5663 C.ar      1 <0>        -0.1318
      6 C6          0.4222   -1.8294    1.9004 C.ar      1 <0>         0.0892
      7 C7          0.6531   -0.4445    2.0701 C.ar      1 <0>        -0.0177
      8 C8          0.7485    0.1303    3.4599 C.3       1 <0>        -0.1192
      9 N1          0.2652   -2.7718    2.8550 N.2       1 <0>        -0.4749
     10 C9          0.0595   -4.0368    2.5705 C.2       1 <0>         0.3371
     11 S1          0.0663   -4.0315    0.7833 S.3       1 <0>        -0.0156
     12 N2         -0.1169   -5.1036    3.4350 N.am      1 <0>        -0.5021
     13 C10        -0.3353   -6.4504    2.9014 C.3       1 <0>         0.0673
     14 C11         0.9830   -7.0025    2.3552 C.3       1 <0>        -0.0514
     15 N3          0.7981   -8.4032    1.9533 N.4       1 <0>        -0.3842
     16 C12        -0.1462   -8.4698    0.8300 C.3       1 <0>        -0.0595
     17 C13         2.0897   -8.9690    1.5413 C.3       1 <0>        -0.0505
     18 C14        -0.0879   -4.9031    4.7674 C.2       1 <0>         0.5499
     19 O1          0.0209   -3.7764    5.2103 O.2       1 <0>        -0.4236
     20 C15        -0.1882   -6.0533    5.6901 C.ar      1 <0>        -0.0740
     21 C16         0.4637   -7.2509    5.3910 C.ar      1 <0>        -0.1444
     22 C17         0.3658   -8.3207    6.2565 C.ar      1 <0>        -0.0246
     23 C18        -0.3767   -8.2086    7.4187 C.ar      1 <0>        -0.6515
     24 C19        -1.0253   -7.0244    7.7211 C.ar      1 <0>        -0.0064
     25 C20        -0.9306   -5.9450    6.8673 C.ar      1 <0>        -0.0718
     26 S2         -0.4974   -9.5802    8.5181 S.o2      1 <0>         2.6826
     27 O2         -1.6941   -9.3998    9.2627 O.2       1 <0>        -0.9390
     28 O3         -0.2509  -10.7452    7.7426 O.2       1 <0>        -0.9476
     29 N4          0.7538   -9.4555    9.5957 N.pl3     1 <0>        -0.9915
     30 C21         0.5721   -8.7150   10.8467 C.3       1 <0>         0.0853
     31 C22         2.0425  -10.0856    9.2981 C.3       1 <0>         0.1469
     32 C23         2.3724  -11.1102   10.3854 C.3       1 <0>        -0.1274
     33 C24         3.7182  -11.7683   10.0745 C.3       1 <0>        -0.1192
     34 C25         4.8114  -10.6987   10.0331 C.3       1 <0>        -0.1250
     35 C26         4.4815   -9.6741    8.9458 C.3       1 <0>        -0.1172
     36 C27         3.1357   -9.0160    9.2567 C.3       1 <0>        -0.1312
     37 H1          2.0968    2.0431    1.2554 H         1 <0>         0.0796
     38 H2          0.5946    2.4182    0.3772 H         1 <0>         0.0759
     39 H3          0.5557    2.1620    2.1382 H         1 <0>         0.0760
     40 H4          0.8212    0.5600   -1.1536 H         1 <0>         0.1464
     41 H5          0.4290   -1.8530   -1.5179 H         1 <0>         0.1385
     42 H6         -0.2429    0.4336    3.7965 H         1 <0>         0.0782
     43 H7          1.1477   -0.6236    4.1383 H         1 <0>         0.0775
     44 H8          1.4097    0.9969    3.4501 H         1 <0>         0.0757
     45 H9         -0.7003   -7.1012    3.6960 H         1 <0>         0.1355
     46 H10        -1.0718   -6.4083    2.0990 H         1 <0>         0.1188
     47 H11         1.2930   -6.4145    1.4914 H         1 <0>         0.1461
     48 H12         1.7493   -6.9444    3.1282 H         1 <0>         0.1459
     49 H13        -1.1046   -8.0500    1.1356 H         1 <0>         0.1252
     50 H14         0.2486   -7.8996   -0.0109 H         1 <0>         0.1291
     51 H15        -0.2834   -9.5092    0.5317 H         1 <0>         0.1349
     52 H16         2.7904   -8.9196    2.3748 H         1 <0>         0.1263
     53 H17         1.9525  -10.0084    1.2431 H         1 <0>         0.1337
     54 H18         2.4845   -8.3988    0.7005 H         1 <0>         0.1270
     55 H19         1.0430   -7.3400    4.4839 H         1 <0>         0.1263
     56 H20         0.8697   -9.2478    6.0264 H         1 <0>         0.1509
     57 H21        -1.6036   -6.9436    8.6297 H         1 <0>         0.1579
     58 H22        -1.4337   -5.0198    7.1068 H         1 <0>         0.1525
     59 H23         0.2130   -9.3928   11.6212 H         1 <0>         0.0688
     60 H24         1.5242   -8.2830   11.1548 H         1 <0>         0.0809
     61 H25        -0.1562   -7.9184   10.6948 H         1 <0>         0.0732
     62 H26         1.9874  -10.5865    8.3315 H         1 <0>         0.0991
     63 H27         2.4275  -10.6094   11.3519 H         1 <0>         0.0728
     64 H28         1.5935  -11.8722   10.4149 H         1 <0>         0.0707
     65 H29         3.9532  -12.4983   10.8491 H         1 <0>         0.0709
     66 H30         3.6631  -12.2692    9.1080 H         1 <0>         0.0651
     67 H31         4.8665  -10.1979   10.9997 H         1 <0>         0.0655
     68 H32         5.7702  -11.1676    9.8117 H         1 <0>         0.0667
     69 H33         5.2604   -8.9121    8.9163 H         1 <0>         0.0675
     70 H34         4.4264  -10.1750    7.9793 H         1 <0>         0.0623
     71 H35         2.9007   -8.2861    8.4821 H         1 <0>         0.0622
     72 H36         3.1908   -8.5152   10.2232 H         1 <0>         0.0743
     73 H37         0.4326   -8.9311    2.7316 H         1 <0>         0.4287
@<TRIPOS>BOND
     1    1    2 1
     2    1   37 1
     3    1   38 1
     4    1   39 1
     5    2    7 ar
     6    2    3 ar
     7    3    4 ar
     8    3   40 1
     9    4    5 ar
    10    4   41 1
    11    5   11 1
    12    5    6 ar
    13    6    7 ar
    14    6    9 1
    15    7    8 1
    16    8   42 1
    17    8   43 1
    18    8   44 1
    19    9   10 2
    20   10   11 1
    21   10   12 1
    22   12   13 1
    23   12   18 am
    24   13   14 1
    25   13   45 1
    26   13   46 1
    27   14   15 1
    28   14   47 1
    29   14   48 1
    30   15   16 1
    31   15   17 1
    32   15   73 1
    33   16   49 1
    34   16   50 1
    35   16   51 1
    36   17   52 1
    37   17   53 1
    38   17   54 1
    39   18   19 2
    40   18   20 1
    41   20   25 ar
    42   20   21 ar
    43   21   22 ar
    44   21   55 1
    45   22   23 ar
    46   22   56 1
    47   23   24 ar
    48   23   26 1
    49   24   25 ar
    50   24   57 1
    51   25   58 1
    52   26   27 2
    53   26   28 2
    54   26   29 1
    55   29   30 1
    56   29   31 1
    57   30   59 1
    58   30   60 1
    59   30   61 1
    60   31   36 1
    61   31   32 1
    62   31   62 1
    63   32   33 1
    64   32   63 1
    65   32   64 1
    66   33   34 1
    67   33   65 1
    68   33   66 1
    69   34   35 1
    70   34   67 1
    71   34   68 1
    72   35   36 1
    73   35   69 1
    74   35   70 1
    75   36   71 1
    76   36   72 1
@<TRIPOS>MOLECULE
ZINC36698942
   70    73     0     0     0
SMALL
USER_CHARGES

@<TRIPOS>ATOM
      1 C1          0.5958    0.7756    0.8388 C.3       1 <0>        -0.1204
      2 C2          0.5717   -0.7166    0.6295 C.ar      1 <0>        -0.0699
      3 C3          0.3246   -1.2131   -0.6241 C.ar      1 <0>        -0.0654
      4 C4          0.2944   -2.6075   -0.8557 C.ar      1 <0>         0.0881
      5 C5          0.5314   -3.4322    0.2680 C.ar      1 <0>        -0.1721
      6 C6          0.7783   -2.9261    1.5193 C.ar      1 <0>        -0.0599
      7 C7          0.8056   -1.5562    1.7085 C.ar      1 <0>        -0.0558
      8 C8          1.0806   -0.9818    3.0744 C.3       1 <0>        -0.1207
      9 S1          0.4108   -5.0627   -0.4274 S.3       1 <0>         0.1084
     10 C9          0.0652   -4.5647   -2.1087 C.2       1 <0>         0.3348
     11 N1          0.0673   -3.2549   -2.0190 N.2       1 <0>        -0.5349
     12 N2         -0.1497   -5.3582   -3.2225 N.am      1 <0>        -0.4985
     13 C10        -0.4198   -4.7386   -4.5222 C.3       1 <0>         0.1027
     14 C11         0.8736   -4.1433   -5.0821 C.3       1 <0>        -0.1829
     15 C12         0.6264   -3.6312   -6.5025 C.3       1 <0>        -0.0109
     16 N3          1.8683   -3.0597   -7.0401 N.4       1 <0>        -0.3863
     17 C13         1.6639   -2.6772   -8.4437 C.3       1 <0>        -0.0489
     18 C14         2.2397   -1.8728   -6.2583 C.3       1 <0>        -0.0539
     19 C15        -0.1104   -6.7008   -3.1111 C.2       1 <0>         0.5577
     20 O1          0.0395   -7.2160   -2.0205 O.2       1 <0>        -0.4620
     21 C16        -0.2495   -7.5465   -4.3151 C.ar      1 <0>        -0.0760
     22 C17         0.3676   -7.1722   -5.5100 C.ar      1 <0>        -0.1308
     23 C18         0.2341   -7.9665   -6.6300 C.ar      1 <0>        -0.0273
     24 C19        -0.5095   -9.1318   -6.5708 C.ar      1 <0>        -0.6498
     25 C20        -1.1241   -9.5085   -5.3897 C.ar      1 <0>        -0.0117
     26 C21        -0.9939   -8.7263   -4.2609 C.ar      1 <0>        -0.0716
     27 S2         -0.6749  -10.1405   -8.0060 S.o2      1 <0>         2.6853
     28 O2         -1.8688  -10.8927   -7.8384 O.2       1 <0>        -0.9408
     29 O3         -0.4598   -9.2922   -9.1256 O.2       1 <0>        -0.9495
     30 N4          0.5751  -11.2265   -7.9879 N.pl3     1 <0>        -0.9921
     31 C22         1.8574  -10.9026   -8.6279 C.3       1 <0>         0.1182
     32 C23         2.9823  -11.1031   -7.6075 C.3       1 <0>        -0.1355
     33 C24         2.9038  -12.5222   -7.0399 C.3       1 <0>        -0.1211
     34 C25         1.5639  -12.7144   -6.3258 C.3       1 <0>        -0.1374
     35 C26         0.4250  -12.5298   -7.3264 C.3       1 <0>         0.1158
     36 H1          1.6079    1.1483    0.6812 H         1 <0>         0.0762
     37 H2         -0.0816    1.2528    0.1306 H         1 <0>         0.0701
     38 H3          0.2784    1.0049    1.8561 H         1 <0>         0.0769
     39 H4          0.1508   -0.5316   -1.4437 H         1 <0>         0.1302
     40 H5          0.9543   -3.5931    2.3503 H         1 <0>         0.1364
     41 H6          0.1406   -0.8563    3.6117 H         1 <0>         0.0804
     42 H7          1.7289   -1.6595    3.6298 H         1 <0>         0.0737
     43 H8          1.5712   -0.0141    2.9695 H         1 <0>         0.0769
     44 H9         -0.8013   -5.4919   -5.2116 H         1 <0>         0.1169
     45 H10        -1.1608   -3.9485   -4.4011 H         1 <0>         0.1093
     46 H11         1.1971   -3.3170   -4.4492 H         1 <0>         0.1108
     47 H12         1.6478   -4.9104   -5.1021 H         1 <0>         0.0954
     48 H13         0.3029   -4.4576   -7.1355 H         1 <0>         0.1369
     49 H14        -0.1478   -2.8642   -6.4826 H         1 <0>         0.1402
     50 H15         0.8664   -1.9369   -8.5061 H         1 <0>         0.1243
     51 H16         2.5854   -2.2531   -8.8425 H         1 <0>         0.1266
     52 H17         1.3883   -3.5579   -9.0238 H         1 <0>         0.1262
     53 H18         2.3913   -2.1566   -5.2168 H         1 <0>         0.1237
     54 H19         3.1612   -1.4487   -6.6572 H         1 <0>         0.1265
     55 H20         1.4421   -1.1324   -6.3207 H         1 <0>         0.1255
     56 H21         0.9479   -6.2626   -5.5576 H         1 <0>         0.1389
     57 H22         0.7107   -7.6778   -7.5551 H         1 <0>         0.1483
     58 H23        -1.7037  -10.4190   -5.3505 H         1 <0>         0.1564
     59 H24        -1.4704   -9.0237   -3.3384 H         1 <0>         0.1514
     60 H25         2.0166  -11.5617   -9.4814 H         1 <0>         0.0820
     61 H26         1.8475   -9.8650   -8.9616 H         1 <0>         0.0879
     62 H27         3.9462  -10.9593   -8.0956 H         1 <0>         0.0780
     63 H28         2.8724  -10.3811   -6.7983 H         1 <0>         0.0634
     64 H29         2.9889  -13.2436   -7.8526 H         1 <0>         0.0692
     65 H30         3.7180  -12.6756   -6.3316 H         1 <0>         0.0678
     66 H31         1.5183  -13.7175   -5.9017 H         1 <0>         0.0815
     67 H32         1.4674  -11.9772   -5.5287 H         1 <0>         0.0651
     68 H33        -0.5297  -12.5654   -6.8018 H         1 <0>         0.0927
     69 H34         0.4648  -13.3245   -8.0714 H         1 <0>         0.0826
     70 H35         2.6065   -3.7450   -6.9824 H         1 <0>         0.4265
@<TRIPOS>BOND
     1    1    2 1
     2    1   36 1
     3    1   37 1
     4    1   38 1
     5    2    7 ar
     6    2    3 ar
     7    3    4 ar
     8    3   39 1
     9    4   11 1
    10    4    5 ar
    11    5    6 ar
    12    5    9 1
    13    6    7 ar
    14    6   40 1
    15    7    8 1
    16    8   41 1
    17    8   42 1
    18    8   43 1
    19    9   10 1
    20   10   11 2
    21   10   12 1
    22   12   13 1
    23   12   19 am
    24   13   14 1
    25   13   44 1
    26   13   45 1
    27   14   15 1
    28   14   46 1
    29   14   47 1
    30   15   16 1
    31   15   48 1
    32   15   49 1
    33   16   17 1
    34   16   18 1
    35   16   70 1
    36   17   50 1
    37   17   51 1
    38   17   52 1
    39   18   53 1
    40   18   54 1
    41   18   55 1
    42   19   20 2
    43   19   21 1
    44   21   26 ar
    45   21   22 ar
    46   22   23 ar
    47   22   56 1
    48   23   24 ar
    49   23   57 1
    50   24   25 ar
    51   24   27 1
    52   25   26 ar
    53   25   58 1
    54   26   59 1
    55   27   28 2
    56   27   29 2
    57   27   30 1
    58   30   35 1
    59   30   31 1
    60   31   32 1
    61   31   60 1
    62   31   61 1
    63   32   33 1
    64   32   62 1
    65   32   63 1
    66   33   34 1
    67   33   64 1
    68   33   65 1
    69   34   35 1
    70   34   66 1
    71   34   67 1
    72   35   68 1
    73   35   69 1
@<TRIPOS>MOLECULE
ZINC59170417
   68    71     0     0     0
SMALL
USER_CHARGES

@<TRIPOS>ATOM
      1 C1         -0.3139    0.6593   -0.3064 C.3       1 <0>        -0.1764
      2 C2         -0.1876   -0.7116    0.3612 C.3       1 <0>         0.1000
      3 N1          0.6774   -0.6036    1.5386 N.pl3     1 <0>        -0.5838
      4 C3          0.0976   -0.2922    2.8474 C.3       1 <0>         0.0974
      5 C4         -0.2791   -1.5923    3.5607 C.3       1 <0>        -0.1765
      6 C5          2.0494   -0.7967    1.4138 C.ar      1 <0>         0.3085
      7 C6          2.5974   -1.0873    0.1650 C.ar      1 <0>        -0.2005
      8 C7          3.9420   -1.2807    0.0280 C.ar      1 <0>         0.0254
      9 C8          4.7774   -1.1867    1.1479 C.ar      1 <0>        -0.2387
     10 C9          6.2221   -1.3962    1.0212 C.2       1 <0>         0.1479
     11 C10         6.9470   -1.5610    2.1797 C.2       1 <0>        -0.2885
     12 C11         6.2014   -1.5113    3.4588 C.2       1 <0>         0.5263
     13 N2          6.6396   -2.1327    4.5170 N.pl3     1 <0>        -0.3106
     14 N3          5.8736   -2.1443    5.6900 N.pl3     1 <0>        -0.9172
     15 S1          6.4847   -2.8229    7.0714 S.o2      1 <0>         2.6653
     16 O1          5.6039   -2.4606    8.1259 O.2       1 <0>        -0.8950
     17 O2          6.7846   -4.1767    6.7604 O.2       1 <0>        -0.9117
     18 C12         8.0226   -2.0303    7.4049 C.ar      1 <0>        -0.7002
     19 C13         9.1796   -2.4839    6.7995 C.ar      1 <0>        -0.0196
     20 C14        10.3862   -1.8621    7.0612 C.ar      1 <0>        -0.1274
     21 C15        10.4356   -0.7863    7.9279 C.ar      1 <0>        -0.0066
     22 C16         9.2785   -0.3321    8.5326 C.ar      1 <0>        -0.1364
     23 C17         8.0713   -0.9513    8.2676 C.ar      1 <0>        -0.0067
     24 C18        11.7511   -0.1090    8.2139 C.3       1 <0>        -0.1334
     25 O3          5.0412   -0.7933    3.4936 O.3       1 <0>        -0.2153
     26 C19         4.2286   -0.8906    2.4105 C.ar      1 <0>         0.1836
     27 C20         2.8664   -0.6931    2.5341 C.ar      1 <0>        -0.2127
     28 C21         8.4010   -1.7779    2.1488 C.2       1 <0>         0.5793
     29 O4          9.0323   -1.8182    3.1881 O.2       1 <0>        -0.5255
     30 N4          9.0345   -1.9320    0.9692 N.am      1 <0>        -0.6470
     31 C22        10.3871   -2.2856    0.9429 C.ar      1 <0>         0.1195
     32 C23        10.9112   -3.1066    1.9331 C.ar      1 <0>        -0.1107
     33 C24        12.2474   -3.4544    1.9040 C.ar      1 <0>        -0.1016
     34 C25        13.0635   -2.9858    0.8906 C.ar      1 <0>        -0.0820
     35 C26        12.5449   -2.1680   -0.0966 C.ar      1 <0>        -0.0993
     36 C27        11.2082   -1.8214   -0.0767 C.ar      1 <0>        -0.1284
     37 C28        14.5212   -3.3670    0.8623 C.3       1 <0>        -0.1214
     38 H1          0.6731    1.0073   -0.6113 H         1 <0>         0.0617
     39 H2         -0.9575    0.5789   -1.1824 H         1 <0>         0.0786
     40 H3         -0.7472    1.3684    0.3990 H         1 <0>         0.0635
     41 H4         -1.1745   -1.0595    0.6661 H         1 <0>         0.0931
     42 H5          0.2458   -1.4206   -0.3442 H         1 <0>         0.0888
     43 H6          0.8262    0.2533    3.4471 H         1 <0>         0.0856
     44 H7         -0.7941    0.3202    2.7134 H         1 <0>         0.0943
     45 H8          0.6126   -2.2047    3.6947 H         1 <0>         0.0591
     46 H9         -0.7105   -1.3606    4.5345 H         1 <0>         0.0782
     47 H10        -1.0077   -2.1378    2.9610 H         1 <0>         0.0654
     48 H11         1.9541   -1.1601   -0.6995 H         1 <0>         0.1533
     49 H12         4.3604   -1.5060   -0.9418 H         1 <0>         0.1585
     50 H13         6.7011   -1.4200    0.0536 H         1 <0>         0.1821
     51 H14         4.9852   -1.7547    5.6930 H         1 <0>         0.4539
     52 H15         9.1410   -3.3244    6.1224 H         1 <0>         0.1379
     53 H16        11.2902   -2.2169    6.5887 H         1 <0>         0.1415
     54 H17         9.3172    0.5081    9.2100 H         1 <0>         0.1420
     55 H18         7.1667   -0.5941    8.7372 H         1 <0>         0.1472
     56 H19        11.9092    0.6957    7.4959 H         1 <0>         0.0860
     57 H20        11.7361    0.3024    9.2232 H         1 <0>         0.0796
     58 H21        12.5596   -0.8352    8.1296 H         1 <0>         0.0795
     59 H22         2.4374   -0.4633    3.4983 H         1 <0>         0.1579
     60 H23         8.5521   -1.7976    0.1384 H         1 <0>         0.4132
     61 H24        10.2746   -3.4722    2.7252 H         1 <0>         0.1318
     62 H25        12.6556   -4.0926    2.6736 H         1 <0>         0.1303
     63 H26        13.1850   -1.8034   -0.8864 H         1 <0>         0.1324
     64 H27        10.8028   -1.1863   -0.8505 H         1 <0>         0.1295
     65 H28        14.6453   -4.2862    0.2899 H         1 <0>         0.0760
     66 H29        15.0967   -2.5677    0.3953 H         1 <0>         0.0705
     67 H30        14.8759   -3.5227    1.8811 H         1 <0>         0.0698
     68 H31         7.4961   -2.5873    4.4926 H         1 <0>         0.4789
@<TRIPOS>BOND
     1    1    2 1
     2    1   38 1
     3    1   39 1
     4    1   40 1
     5    2    3 1
     6    2   41 1
     7    2   42 1
     8    3    4 1
     9    3    6 1
    10    4    5 1
    11    4   43 1
    12    4   44 1
    13    5   45 1
    14    5   46 1
    15    5   47 1
    16    6   27 ar
    17    6    7 ar
    18    7    8 ar
    19    7   48 1
    20    8    9 ar
    21    8   49 1
    22    9   26 ar
    23    9   10 1
    24   10   11 2
    25   10   50 1
    26   11   12 1
    27   11   28 1
    28   12   13 2
    29   12   25 1
    30   13   14 1
    31   13   68 1
    32   14   15 1
    33   14   51 1
    34   15   16 2
    35   15   17 2
    36   15   18 1
    37   18   23 ar
    38   18   19 ar
    39   19   20 ar
    40   19   52 1
    41   20   21 ar
    42   20   53 1
    43   21   22 ar
    44   21   24 1
    45   22   23 ar
    46   22   54 1
    47   23   55 1
    48   24   56 1
    49   24   57 1
    50   24   58 1
    51   25   26 1
    52   26   27 ar
    53   27   59 1
    54   28   29 2
    55   28   30 am
    56   30   31 1
    57   30   60 1
    58   31   36 ar
    59   31   32 ar
    60   32   33 ar
    61   32   61 1
    62   33   34 ar
    63   33   62 1
    64   34   35 ar
    65   34   37 1
    66   35   36 ar
    67   35   63 1
    68   36   64 1
    69   37   65 1
    70   37   66 1
    71   37   67 1
@<TRIPOS>MOLECULE
ZINC02077754
   89    90     0     0     0
SMALL
USER_CHARGES
3,9-bis(2,2-dimethylpropanoyl)-5,11-diisopropyl-2,8-ditert-butyl-1,7-dioxa-5,11-diazaspiro[5.5]undeca-2,8-diene-4,10-dione
@<TRIPOS>ATOM
      1 C1         -0.1066   -7.4625   -3.7705 C.3       1 <0>        -0.1679
      2 C2         -0.1727   -7.3312   -2.2476 C.3       1 <0>         0.0977
      3 C3         -0.5258   -8.6874   -1.6336 C.3       1 <0>        -0.1815
      4 N1          1.1278   -6.8885   -1.7387 N.am      1 <0>        -0.5960
      5 C4          2.2008   -7.7039   -1.8183 C.2       1 <0>         0.5879
      6 O1          2.1350   -8.7613   -2.4159 O.2       1 <0>        -0.4803
      7 C5          3.4557   -7.2838   -1.1646 C.2       1 <0>        -0.3374
      8 C6          3.4165   -6.2018   -0.3056 C.2       1 <0>         0.2173
      9 O2          2.2416   -5.6003   -0.0628 O.3       1 <0>        -0.3059
     10 C7          1.2709   -5.5571   -1.1406 C.3       1 <0>         0.6961
     11 N2         -0.0262   -5.1292   -0.6066 N.am      1 <0>        -0.5954
     12 C8         -0.2982   -3.8132   -0.4899 C.2       1 <0>         0.5865
     13 O3         -1.3140   -3.4364    0.0631 O.2       1 <0>        -0.4796
     14 C9          0.6595   -2.8410   -1.0523 C.2       1 <0>        -0.3382
     15 C10         1.6713   -3.3140   -1.8662 C.2       1 <0>         0.2190
     16 O4          1.7209   -4.6232   -2.1563 O.3       1 <0>        -0.3061
     17 C11         2.7072   -2.3705   -2.4211 C.3       1 <0>        -0.0262
     18 C12         3.1284   -1.3792   -1.3345 C.3       1 <0>        -0.1841
     19 C13         3.9277   -3.1684   -2.8845 C.3       1 <0>        -0.1483
     20 C14         2.1171   -1.6060   -3.6079 C.3       1 <0>        -0.1591
     21 C15         0.5443   -1.4157   -0.7512 C.2       1 <0>         0.4550
     22 O5          0.3722   -0.6177   -1.6494 O.2       1 <0>        -0.4352
     23 C16         0.6393   -0.9366    0.6744 C.3       1 <0>        -0.1066
     24 C17         0.5700    0.5915    0.7046 C.3       1 <0>        -0.1350
     25 C18         1.9659   -1.3990    1.2805 C.3       1 <0>        -0.1529
     26 C19        -0.5214   -1.5160    1.4855 C.3       1 <0>        -0.1312
     27 C20        -1.0181   -6.1262   -0.1963 C.3       1 <0>         0.0965
     28 C21        -1.1939   -6.0755    1.3227 C.3       1 <0>        -0.1679
     29 C22        -2.3557   -5.8240   -0.8749 C.3       1 <0>        -0.1811
     30 C23         4.6783   -5.7029    0.3502 C.3       1 <0>        -0.0270
     31 C24         5.8096   -5.6703   -0.6793 C.3       1 <0>        -0.1798
     32 C25         4.4457   -4.2932    0.8973 C.3       1 <0>        -0.1472
     33 C26         5.0606   -6.6390    1.4985 C.3       1 <0>        -0.1618
     34 C27         4.7072   -7.9939   -1.4187 C.2       1 <0>         0.4540
     35 O6          5.2786   -8.5608   -0.5102 O.2       1 <0>        -0.4340
     36 C28         5.2885   -8.0225   -2.8088 C.3       1 <0>        -0.1066
     37 C29         6.6565   -8.7070   -2.7756 C.3       1 <0>        -0.1354
     38 C30         4.3523   -8.7986   -3.7372 C.3       1 <0>        -0.1307
     39 C31         5.4469   -6.5909   -3.3249 C.3       1 <0>        -0.1526
     40 H1          0.6565   -8.1929   -4.0394 H         1 <0>         0.0776
     41 H2         -1.0742   -7.7919   -4.1492 H         1 <0>         0.0741
     42 H3          0.1450   -6.4964   -4.2080 H         1 <0>         0.0585
     43 H4         -0.9358   -6.6008   -1.9787 H         1 <0>         0.1298
     44 H5         -0.5571   -8.5975   -0.5478 H         1 <0>         0.0654
     45 H6         -1.5008   -9.0092   -1.9998 H         1 <0>         0.0825
     46 H7          0.2287   -9.4216   -1.9159 H         1 <0>         0.0918
     47 H8          3.2758   -1.9113   -0.3947 H         1 <0>         0.0781
     48 H9          4.0594   -0.8935   -1.6269 H         1 <0>         0.0822
     49 H10         2.3502   -0.6266   -1.2078 H         1 <0>         0.0832
     50 H11         3.6462   -3.8114   -3.7184 H         1 <0>         0.0683
     51 H12         4.7111   -2.4812   -3.2039 H         1 <0>         0.0753
     52 H13         4.2952   -3.7810   -2.0612 H         1 <0>         0.0590
     53 H14         1.2476   -1.0376   -3.2778 H         1 <0>         0.0967
     54 H15         2.8663   -0.9236   -4.0092 H         1 <0>         0.0723
     55 H16         1.8170   -2.3122   -4.3820 H         1 <0>         0.0595
     56 H17         1.3969    1.0042    0.1268 H         1 <0>         0.0603
     57 H18        -0.3751    0.9209    0.2728 H         1 <0>         0.0638
     58 H19         0.6387    0.9380    1.7358 H         1 <0>         0.0654
     59 H20         1.9878   -1.1482    2.3410 H         1 <0>         0.0708
     60 H21         2.0638   -2.4779    1.1602 H         1 <0>         0.0593
     61 H22         2.7911   -0.9004    0.7721 H         1 <0>         0.0725
     62 H23        -1.4589   -1.3314    0.9611 H         1 <0>         0.0672
     63 H24        -0.3789   -2.5896    1.6080 H         1 <0>         0.0674
     64 H25        -0.5534   -1.0396    2.4654 H         1 <0>         0.0605
     65 H26        -0.6780   -7.1193   -0.4898 H         1 <0>         0.1307
     66 H27        -1.9320   -6.8173    1.6280 H         1 <0>         0.0741
     67 H28        -0.2410   -6.2908    1.8061 H         1 <0>         0.0583
     68 H29        -1.5340   -5.0824    1.6162 H         1 <0>         0.0775
     69 H30        -2.2270   -5.8447   -1.9570 H         1 <0>         0.0650
     70 H31        -3.0896   -6.5747   -0.5818 H         1 <0>         0.0822
     71 H32        -2.7035   -4.8372   -0.5692 H         1 <0>         0.0920
     72 H33         5.4477   -5.2178   -1.6025 H         1 <0>         0.0777
     73 H34         6.6401   -5.0828   -0.2879 H         1 <0>         0.0828
     74 H35         6.1469   -6.6870   -0.8808 H         1 <0>         0.0802
     75 H36         3.7027   -4.3306    1.6940 H         1 <0>         0.0681
     76 H37         5.3816   -3.8975    1.2917 H         1 <0>         0.0750
     77 H38         4.0870   -3.6471    0.0960 H         1 <0>         0.0585
     78 H39         5.2263   -7.6433    1.1088 H         1 <0>         0.0985
     79 H40         5.9732   -6.2782    1.9729 H         1 <0>         0.0722
     80 H41         4.2546   -6.6622    2.2320 H         1 <0>         0.0598
     81 H42         6.5436   -9.7269   -2.4079 H         1 <0>         0.0644
     82 H43         7.0769   -8.7276   -3.7810 H         1 <0>         0.0658
     83 H44         7.3234   -8.1540   -2.1142 H         1 <0>         0.0601
     84 H45         3.4444   -8.2192   -3.9049 H         1 <0>         0.0661
     85 H46         4.8509   -8.9766   -4.6900 H         1 <0>         0.0621
     86 H47         4.0945   -9.7531   -3.2782 H         1 <0>         0.0664
     87 H48         6.2569   -6.0983   -2.7869 H         1 <0>         0.0719
     88 H49         5.6782   -6.6121   -4.3898 H         1 <0>         0.0704
     89 H50         4.5186   -6.0424   -3.1655 H         1 <0>         0.0596
@<TRIPOS>BOND
     1    1    2 1
     2    1   40 1
     3    1   41 1
     4    1   42 1
     5    2    3 1
     6    2    4 1
     7    2   43 1
     8    3   44 1
     9    3   45 1
    10    3   46 1
    11    4   10 1
    12    4    5 am
    13    5    6 2
    14    5    7 1
    15    7    8 2
    16    7   34 1
    17    8    9 1
    18    8   30 1
    19    9   10 1
    20   10   16 1
    21   10   11 1
    22   11   12 am
    23   11   27 1
    24   12   13 2
    25   12   14 1
    26   14   15 2
    27   14   21 1
    28   15   16 1
    29   15   17 1
    30   17   18 1
    31   17   19 1
    32   17   20 1
    33   18   47 1
    34   18   48 1
    35   18   49 1
    36   19   50 1
    37   19   51 1
    38   19   52 1
    39   20   53 1
    40   20   54 1
    41   20   55 1
    42   21   22 2
    43   21   23 1
    44   23   24 1
    45   23   25 1
    46   23   26 1
    47   24   56 1
    48   24   57 1
    49   24   58 1
    50   25   59 1
    51   25   60 1
    52   25   61 1
    53   26   62 1
    54   26   63 1
    55   26   64 1
    56   27   28 1
    57   27   29 1
    58   27   65 1
    59   28   66 1
    60   28   67 1
    61   28   68 1
    62   29   69 1
    63   29   70 1
    64   29   71 1
    65   30   31 1
    66   30   32 1
    67   30   33 1
    68   31   72 1
    69   31   73 1
    70   31   74 1
    71   32   75 1
    72   32   76 1
    73   32   77 1
    74   33   78 1
    75   33   79 1
    76   33   80 1
    77   34   35 2
    78   34   36 1
    79   36   37 1
    80   36   38 1
    81   36   39 1
    82   37   81 1
    83   37   82 1
    84   37   83 1
    85   38   84 1
    86   38   85 1
    87   38   86 1
    88   39   87 1
    89   39   88 1
    90   39   89 1
@<TRIPOS>MOLECULE
ZINC16503460
   73    76     0     0     0
SMALL
USER_CHARGES
N-[2-[(4R)-4-(4-tert-butylphenyl)-6,7-dihydro-4H-thieno[3,2-c]pyridin-5-yl]-2-oxo-ethyl]-4-nitro-N-sec-butyl-benzamide
@<TRIPOS>ATOM
      1 C1         -7.5426    0.2296    0.7310 C.3       1 <0>        -0.1534
      2 C2         -6.3684    0.7563   -0.0964 C.3       1 <0>        -0.1355
      3 C3         -5.0532    0.3940    0.5964 C.3       1 <0>         0.1234
      4 H1         -5.0412    0.8209    1.5993 H         1 <0>         0.0989
      5 C4         -3.8804    0.9545   -0.2106 C.3       1 <0>        -0.1705
      6 N1         -4.9331   -1.0634    0.6847 N.am      1 <0>        -0.5776
      7 C5         -5.0384   -1.8817   -0.5259 C.3       1 <0>         0.0959
      8 C6         -3.6592   -2.1598   -1.0658 C.2       1 <0>         0.4978
      9 O1         -2.6813   -1.7960   -0.4476 O.2       1 <0>        -0.4834
     10 N2         -3.5125   -2.8128   -2.2357 N.am      1 <0>        -0.6117
     11 C7         -4.6868   -3.1476   -3.0552 C.3       1 <0>         0.1122
     12 C8         -4.5845   -2.3634   -4.3783 C.3       1 <0>        -0.0569
     13 C9         -3.1766   -2.4406   -4.8724 C.2       1 <0>        -0.1462
     14 C10        -2.0649   -2.8040   -4.1769 C.2       1 <0>        -0.1251
     15 C11        -0.8576   -2.7870   -4.8734 C.2       1 <0>        -0.1383
     16 C12        -0.8333   -2.4243   -6.1764 C.2       1 <0>        -0.1702
     17 S1         -2.5568   -2.0778   -6.4940 S.3       1 <0>         0.0462
     18 C13        -2.1777   -3.2055   -2.7074 C.3       1 <0>         0.2519
     19 H2         -2.0539   -4.2840   -2.6088 H         1 <0>         0.0896
     20 C14        -1.1218   -2.4949   -1.9004 C.ar      1 <0>        -0.0523
     21 C15        -1.0474   -1.1148   -1.9223 C.ar      1 <0>        -0.0535
     22 C16        -0.0819   -0.4627   -1.1783 C.ar      1 <0>        -0.1216
     23 C17         0.8159   -1.1913   -0.4208 C.ar      1 <0>        -0.0650
     24 C18         0.7449   -2.5717   -0.4030 C.ar      1 <0>        -0.1140
     25 C19        -0.2240   -3.2235   -1.1428 C.ar      1 <0>        -0.1100
     26 C20         1.8724   -0.4808    0.3854 C.3       1 <0>        -0.0289
     27 C21         3.2585   -0.9283   -0.0832 C.3       1 <0>        -0.1380
     28 C22         1.7317    1.0303    0.1913 C.3       1 <0>        -0.1416
     29 C23         1.6998   -0.8230    1.8666 C.3       1 <0>        -0.1360
     30 C24        -4.7257   -1.6513    1.8796 C.2       1 <0>         0.5669
     31 O2         -4.5414   -2.8512    1.9427 O.2       1 <0>        -0.5099
     32 C25        -4.7225   -0.8370    3.1135 C.ar      1 <0>        -0.0674
     33 C26        -3.8415    0.2380    3.2415 C.ar      1 <0>        -0.0886
     34 C27        -3.8476    0.9974    4.3933 C.ar      1 <0>        -0.0560
     35 C28        -4.7165    0.6884    5.4247 C.ar      1 <0>        -0.0285
     36 C29        -5.5883   -0.3794    5.3065 C.ar      1 <0>        -0.0537
     37 C30        -5.5964   -1.1433    4.1578 C.ar      1 <0>        -0.0740
     38 N3         -4.7136    1.5040    6.6599 N.pl3     1 <0>         0.0237
     39 O3         -5.4776    1.2346    7.5694 O.2       1 <0>        -0.1519
     40 O4         -3.9472    2.4446    6.7668 O.3       1 <0>        -0.1519
     41 H3         -8.4802    0.5421    0.2712 H         1 <0>         0.0600
     42 H4         -7.5014   -0.8589    0.7684 H         1 <0>         0.0548
     43 H5         -7.4829    0.6305    1.7428 H         1 <0>         0.0536
     44 H6         -6.4448    1.8399   -0.1870 H         1 <0>         0.0809
     45 H7         -6.3923    0.3062   -1.0888 H         1 <0>         0.0682
     46 H8         -3.7920    2.0253   -0.0273 H         1 <0>         0.0677
     47 H9         -2.9595    0.4566    0.0931 H         1 <0>         0.0814
     48 H10        -4.0541    0.7808   -1.2725 H         1 <0>         0.0565
     49 H11        -5.5314   -2.8237   -0.2859 H         1 <0>         0.1122
     50 H12        -5.6214   -1.3473   -1.2761 H         1 <0>         0.1095
     51 H13        -4.6990   -4.2181   -3.2597 H         1 <0>         0.0844
     52 H14        -5.5968   -2.8636   -2.5265 H         1 <0>         0.0957
     53 H15        -4.8565   -1.3214   -4.2103 H         1 <0>         0.0875
     54 H16        -5.2557   -2.8020   -5.1168 H         1 <0>         0.0959
     55 H17         0.0585   -3.0637   -4.3728 H         1 <0>         0.1325
     56 H18         0.0088   -2.3613   -6.8497 H         1 <0>         0.1874
     57 H19        -1.7461   -0.5457   -2.5177 H         1 <0>         0.1011
     58 H20        -0.0262    0.6157   -1.1925 H         1 <0>         0.1159
     59 H21         1.4465   -3.1410    0.1886 H         1 <0>         0.1132
     60 H22        -0.2792   -4.3020   -1.1293 H         1 <0>         0.1112
     61 H23         3.3814   -0.6845   -1.1385 H         1 <0>         0.0549
     62 H24         4.0226   -0.4143    0.4999 H         1 <0>         0.0569
     63 H25         3.3587   -2.0048    0.0550 H         1 <0>         0.0558
     64 H26         0.7443    1.3491    0.5252 H         1 <0>         0.0564
     65 H27         2.4959    1.5443    0.7744 H         1 <0>         0.0563
     66 H28         1.8547    1.2741   -0.8639 H         1 <0>         0.0567
     67 H29         1.8001   -1.8995    2.0049 H         1 <0>         0.0551
     68 H30         2.4640   -0.3091    2.4497 H         1 <0>         0.0562
     69 H31         0.7124   -0.5042    2.2005 H         1 <0>         0.0541
     70 H32        -3.1595    0.4773    2.4391 H         1 <0>         0.1548
     71 H33        -3.1695    1.8322    4.4918 H         1 <0>         0.1612
     72 H34        -6.2643   -0.6152    6.1151 H         1 <0>         0.1622
     73 H35        -6.2777   -1.9764    4.0666 H         1 <0>         0.1547
@<TRIPOS>BOND
     1    1    2 1
     2    1   41 1
     3    1   42 1
     4    1   43 1
     5    2    3 1
     6    2   44 1
     7    2   45 1
     8    3    4 1
     9    3    5 1
    10    3    6 1
    11    5   46 1
    12    5   47 1
    13    5   48 1
    14    6    7 1
    15    6   30 am
    16    7    8 1
    17    7   49 1
    18    7   50 1
    19    8    9 2
    20    8   10 am
    21   10   18 1
    22   10   11 1
    23   11   12 1
    24   11   51 1
    25   11   52 1
    26   12   13 1
    27   12   53 1
    28   12   54 1
    29   13   17 1
    30   13   14 2
    31   14   15 1
    32   14   18 1
    33   15   16 2
    34   15   55 1
    35   16   17 1
    36   16   56 1
    37   18   19 1
    38   18   20 1
    39   20   25 ar
    40   20   21 ar
    41   21   22 ar
    42   21   57 1
    43   22   23 ar
    44   22   58 1
    45   23   24 ar
    46   23   26 1
    47   24   25 ar
    48   24   59 1
    49   25   60 1
    50   26   27 1
    51   26   28 1
    52   26   29 1
    53   27   61 1
    54   27   62 1
    55   27   63 1
    56   28   64 1
    57   28   65 1
    58   28   66 1
    59   29   67 1
    60   29   68 1
    61   29   69 1
    62   30   31 2
    63   30   32 1
    64   32   37 ar
    65   32   33 ar
    66   33   34 ar
    67   33   70 1
    68   34   35 ar
    69   34   71 1
    70   35   36 ar
    71   35   38 1
    72   36   37 ar
    73   36   72 1
    74   37   73 1
    75   38   39 2
    76   38   40 1
@<TRIPOS>MOLECULE
ZINC34791550
   73    76     0     0     0
SMALL
USER_CHARGES

@<TRIPOS>ATOM
      1 C1         -0.8839    2.0789    3.9897 C.3       1 <0>        -0.1484
      2 C2         -0.5430    0.6198    3.6802 C.3       1 <0>        -0.0917
      3 C3         -0.5474    0.4056    2.1649 C.3       1 <0>        -0.1304
      4 C4         -0.2398   -1.0638    1.8600 C.3       1 <0>         0.1133
      5 N1          1.0224   -1.4290    2.5174 N.am      1 <0>        -0.6107
      6 C5          1.1662   -1.1805    3.9583 C.3       1 <0>         0.0971
      7 C6          0.8428    0.2903    4.2397 C.3       1 <0>        -0.1325
      8 C7          2.0291   -1.9819    1.8122 C.2       1 <0>         0.5029
      9 O1          1.8829   -2.2211    0.6322 O.2       1 <0>        -0.5131
     10 C8          3.3364   -2.3028    2.4898 C.3       1 <0>         0.1661
     11 H1          3.1488   -2.9245    3.3652 H         1 <0>         0.1136
     12 C9          4.0184   -1.0037    2.9234 C.3       1 <0>        -0.1401
     13 C10         5.1810   -1.3274    3.8640 C.3       1 <0>        -0.0882
     14 C11         6.2849   -2.0429    3.0829 C.3       1 <0>        -0.1608
     15 C12         5.7343   -0.0297    4.4563 C.3       1 <0>        -0.1476
     16 N2          4.2062   -3.0232    1.5566 N.am      1 <0>        -0.6048
     17 C13         4.6318   -4.4263    1.6671 C.3       1 <0>         0.1415
     18 C14         5.5097   -4.6626    0.4587 C.2       1 <0>         0.1710
     19 C15         5.5423   -3.4980   -0.2203 C.2       1 <0>        -0.2685
     20 C16         4.7597   -2.5259    0.4358 C.2       1 <0>         0.5903
     21 O2          4.6070   -1.3843    0.0410 O.2       1 <0>        -0.4933
     22 C17         6.3617   -3.4476   -1.4939 C.3       1 <0>         0.2414
     23 H2          7.1082   -2.6612   -1.3824 H         1 <0>         0.0927
     24 N3          7.0594   -4.6835   -1.8871 N.am      1 <0>        -0.7086
     25 C18         6.9299   -5.7714   -1.1023 C.2       1 <0>         0.7137
     26 O3          7.5024   -6.7962   -1.4183 O.2       1 <0>        -0.5521
     27 N4          6.1912   -5.7598    0.0150 N.am      1 <0>        -0.5212
     28 C19         6.1103   -6.9913    0.8044 C.3       1 <0>         0.1341
     29 C20         4.9443   -7.8182    0.3273 C.2       1 <0>        -0.1950
     30 C21         5.1312   -9.0597   -0.0466 C.2       1 <0>        -0.1440
     31 C22         5.4433   -3.0542   -2.6221 C.ar      1 <0>        -0.0533
     32 C23         4.4930   -3.9464   -3.0829 C.ar      1 <0>        -0.0954
     33 C24         3.6507   -3.5856   -4.1177 C.ar      1 <0>        -0.0871
     34 C25         3.7582   -2.3324   -4.6916 C.ar      1 <0>        -0.1127
     35 C26         4.7076   -1.4402   -4.2303 C.ar      1 <0>        -0.0727
     36 C27         5.5473   -1.7995   -3.1924 C.ar      1 <0>        -0.1549
     37 C28         6.5791   -0.8248   -2.6859 C.3       1 <0>         0.4995
     38 F1          6.4928    0.3662   -3.4148 F         1 <0>        -0.1782
     39 F2          6.3462   -0.5608   -1.3319 F         1 <0>        -0.1498
     40 F3          7.8560   -1.3749   -2.8408 F         1 <0>        -0.1819
     41 H3         -0.1416    2.7310    3.5294 H         1 <0>         0.0551
     42 H4         -1.8709    2.3138    3.5913 H         1 <0>         0.0561
     43 H5         -0.8820    2.2314    5.0690 H         1 <0>         0.0561
     44 H6         -1.2851   -0.0321    4.1410 H         1 <0>         0.0723
     45 H7         -1.5277    0.6629    1.7639 H         1 <0>         0.0757
     46 H8          0.2116    1.0390    1.7057 H         1 <0>         0.0680
     47 H9         -1.0451   -1.6922    2.2404 H         1 <0>         0.0668
     48 H10        -0.1439   -1.2012    0.7830 H         1 <0>         0.0918
     49 H11         0.4755   -1.8184    4.5099 H         1 <0>         0.0724
     50 H12         2.1897   -1.3949    4.2658 H         1 <0>         0.0899
     51 H13         1.5887    0.9248    3.7610 H         1 <0>         0.0702
     52 H14         0.8519    0.4654    5.3155 H         1 <0>         0.0782
     53 H15         4.3966   -0.4811    2.0448 H         1 <0>         0.0992
     54 H16         3.2980   -0.3702    3.4408 H         1 <0>         0.0869
     55 H17         4.8285   -1.9727    4.6686 H         1 <0>         0.0692
     56 H18         7.1224   -2.2537    3.7479 H         1 <0>         0.0517
     57 H19         5.8969   -2.9783    2.6796 H         1 <0>         0.0627
     58 H20         6.6220   -1.4066    2.2646 H         1 <0>         0.0560
     59 H21         4.9478    0.4800    5.0127 H         1 <0>         0.0549
     60 H22         6.5625   -0.2603    5.1264 H         1 <0>         0.0568
     61 H23         6.0868    0.6156    3.6517 H         1 <0>         0.0565
     62 H24         5.2004   -4.5790    2.5844 H         1 <0>         0.1145
     63 H25         3.7661   -5.0882    1.6421 H         1 <0>         0.1094
     64 H26         7.5993   -4.7139   -2.6924 H         1 <0>         0.4356
     65 H27         7.0323   -7.5604    0.6853 H         1 <0>         0.1079
     66 H28         5.9716   -6.7403    1.8560 H         1 <0>         0.0973
     67 H29         3.9546   -7.3872    0.2935 H         1 <0>         0.1117
     68 H30         6.1210   -9.4907   -0.0128 H         1 <0>         0.1039
     69 H31         4.2956   -9.6523   -0.3885 H         1 <0>         0.1035
     70 H32         4.4090   -4.9253   -2.6346 H         1 <0>         0.1226
     71 H33         2.9088   -4.2828   -4.4781 H         1 <0>         0.1317
     72 H34         3.1005   -2.0507   -5.5006 H         1 <0>         0.1355
     73 H35         4.7918   -0.4613   -4.6789 H         1 <0>         0.1395
@<TRIPOS>BOND
     1    1    2 1
     2    1   41 1
     3    1   42 1
     4    1   43 1
     5    2    7 1
     6    2    3 1
     7    2   44 1
     8    3    4 1
     9    3   45 1
    10    3   46 1
    11    4    5 1
    12    4   47 1
    13    4   48 1
    14    5    6 1
    15    5    8 am
    16    6    7 1
    17    6   49 1
    18    6   50 1
    19    7   51 1
    20    7   52 1
    21    8    9 2
    22    8   10 1
    23   10   11 1
    24   10   12 1
    25   10   16 1
    26   12   13 1
    27   12   53 1
    28   12   54 1
    29   13   14 1
    30   13   15 1
    31   13   55 1
    32   14   56 1
    33   14   57 1
    34   14   58 1
    35   15   59 1
    36   15   60 1
    37   15   61 1
    38   16   20 am
    39   16   17 1
    40   17   18 1
    41   17   62 1
    42   17   63 1
    43   18   27 1
    44   18   19 2
    45   19   20 1
    46   19   22 1
    47   20   21 2
    48   22   23 1
    49   22   24 1
    50   22   31 1
    51   24   25 am
    52   24   64 1
    53   25   26 2
    54   25   27 am
    55   27   28 1
    56   28   29 1
    57   28   65 1
    58   28   66 1
    59   29   30 2
    60   29   67 1
    61   30   68 1
    62   30   69 1
    63   31   36 ar
    64   31   32 ar
    65   32   33 ar
    66   32   70 1
    67   33   34 ar
    68   33   71 1
    69   34   35 ar
    70   34   72 1
    71   35   36 ar
    72   35   73 1
    73   36   37 1
    74   37   38 1
    75   37   39 1
    76   37   40 1
@<TRIPOS>MOLECULE
ZINC44938923
   73    76     0     0     0
SMALL
USER_CHARGES

@<TRIPOS>ATOM
      1 C1          5.8672    1.7670    2.3894 C.3       1 <0>        -0.1402
      2 C2          4.7847    2.3617    1.4864 C.3       1 <0>        -0.0351
      3 C3          3.4382    1.7098    1.8071 C.3       1 <0>        -0.1395
      4 C4          4.6915    3.8698    1.7274 C.3       1 <0>        -0.1472
      5 C5          5.1367    2.1043    0.0439 C.ar      1 <0>        -0.0378
      6 C6          5.3245    3.1692   -0.8198 C.ar      1 <0>        -0.1325
      7 C7          5.6463    2.9410   -2.1413 C.ar      1 <0>        -0.0579
      8 C8          5.7830    1.6312   -2.6073 C.ar      1 <0>        -0.1651
      9 C9          5.5924    0.5612   -1.7299 C.ar      1 <0>        -0.0764
     10 C10         5.2760    0.8043   -0.4096 C.ar      1 <0>        -0.1279
     11 C11         6.1271    1.3789   -4.0218 C.2       1 <0>         0.4394
     12 O1          6.6225    2.2623   -4.6937 O.2       1 <0>        -0.4424
     13 C12         5.8689    0.0525   -4.6196 C.ar      1 <0>        -0.1398
     14 C13         4.8643   -0.7676   -4.0993 C.ar      1 <0>        -0.0957
     15 C14         4.6256   -2.0054   -4.6595 C.ar      1 <0>        -0.1093
     16 C15         5.3778   -2.4395   -5.7355 C.ar      1 <0>        -0.1153
     17 C16         6.3796   -1.6316   -6.2607 C.ar      1 <0>         0.1354
     18 C17         6.6238   -0.3833   -5.7095 C.ar      1 <0>        -0.0644
     19 N1          7.1377   -2.0759   -7.3490 N.am      1 <0>        -0.6709
     20 C18         8.4439   -1.7552   -7.4361 C.2       1 <0>         0.5606
     21 O2          8.9431   -1.0109   -6.6148 O.2       1 <0>        -0.5104
     22 C19         9.2693   -2.3084   -8.5304 C.ar      1 <0>        -0.1377
     23 C20         8.6978   -3.1590   -9.4786 C.ar      1 <0>        -0.0840
     24 C21         9.4737   -3.6718  -10.4972 C.ar      1 <0>        -0.1240
     25 C22        10.8158   -3.3450  -10.5805 C.ar      1 <0>        -0.0845
     26 C23        11.3885   -2.5032   -9.6439 C.ar      1 <0>        -0.0852
     27 C24        10.6222   -1.9783   -8.6236 C.ar      1 <0>        -0.0318
     28 C25        12.8510   -2.1532   -9.7423 C.3       1 <0>         0.0930
     29 N2         13.0115   -0.9464  -10.5644 N.3       1 <0>        -0.5315
     30 C26        12.6110   -1.1996  -11.9549 C.3       1 <0>         0.0389
     31 C27        12.6197    0.1201  -12.7338 C.3       1 <0>         0.1222
     32 N3         13.9389    0.7498  -12.5713 N.pl3     1 <0>        -1.0029
     33 C28        14.4693    0.9127  -11.2092 C.3       1 <0>         0.1216
     34 C29        14.3878   -0.4382  -10.4903 C.3       1 <0>         0.0446
     35 S1         14.8039    1.2623  -13.8872 S.o2      1 <0>         2.6095
     36 O3         16.1609    1.2208  -13.4676 O.2       1 <0>        -0.9544
     37 O4         14.3517    0.4460  -14.9588 O.2       1 <0>        -0.9550
     38 C30        14.2827    2.9802  -14.1474 C.3       1 <0>        -0.6725
     39 H1          5.9336    0.6926    2.2178 H         1 <0>         0.0584
     40 H2          6.8265    2.2314    2.1610 H         1 <0>         0.0577
     41 H3          5.6126    1.9531    3.4328 H         1 <0>         0.0615
     42 H4          3.1837    1.8960    2.8504 H         1 <0>         0.0613
     43 H5          2.6670    2.1335    1.1637 H         1 <0>         0.0576
     44 H6          3.5046    0.6355    1.6354 H         1 <0>         0.0584
     45 H7          5.6507    4.3342    1.4990 H         1 <0>         0.0602
     46 H8          3.9203    4.2935    1.0840 H         1 <0>         0.0602
     47 H9          4.4369    4.0559    2.7707 H         1 <0>         0.0610
     48 H10         5.2186    4.1813   -0.4581 H         1 <0>         0.1342
     49 H11         5.7920    3.7729   -2.8144 H         1 <0>         0.1326
     50 H12         5.6961   -0.4539   -2.0836 H         1 <0>         0.1367
     51 H13         5.1326   -0.0220    0.2710 H         1 <0>         0.1288
     52 H14         4.2751   -0.4325   -3.2585 H         1 <0>         0.1381
     53 H15         3.8487   -2.6378   -4.2560 H         1 <0>         0.1359
     54 H16         5.1866   -3.4099   -6.1692 H         1 <0>         0.1319
     55 H17         7.3984    0.2479   -6.1192 H         1 <0>         0.1494
     56 H18         6.7235   -2.6149   -8.0409 H         1 <0>         0.4120
     57 H19         7.6505   -3.4151   -9.4145 H         1 <0>         0.1253
     58 H20         9.0329   -4.3302  -11.2311 H         1 <0>         0.1321
     59 H21        11.4189   -3.7493  -11.3800 H         1 <0>         0.1271
     60 H22        11.0693   -1.3171   -7.8961 H         1 <0>         0.1388
     61 H23        13.2483   -1.9684   -8.7442 H         1 <0>         0.0901
     62 H24        13.3924   -2.9803  -10.2015 H         1 <0>         0.0492
     63 H25        13.3114   -1.8974  -12.4138 H         1 <0>         0.0429
     64 H26        11.6080   -1.6259  -11.9727 H         1 <0>         0.0912
     65 H27        12.4356   -0.0769  -13.7899 H         1 <0>         0.0984
     66 H28        11.8474    0.7817  -12.3417 H         1 <0>         0.0776
     67 H29        15.5079    1.2398  -11.2573 H         1 <0>         0.0996
     68 H30        13.8747    1.6506  -10.6706 H         1 <0>         0.0789
     69 H31        14.6733   -0.3122   -9.4459 H         1 <0>         0.0910
     70 H32        15.0634   -1.1466  -10.9696 H         1 <0>         0.0437
     71 H33        14.5134    3.5684  -13.2592 H         1 <0>         0.1280
     72 H34        14.8123    3.3946  -15.0052 H         1 <0>         0.1282
     73 H35        13.2092    3.0099  -14.3341 H         1 <0>         0.1276
@<TRIPOS>BOND
     1    1    2 1
     2    1   39 1
     3    1   40 1
     4    1   41 1
     5    2    3 1
     6    2    4 1
     7    2    5 1
     8    3   42 1
     9    3   43 1
    10    3   44 1
    11    4   45 1
    12    4   46 1
    13    4   47 1
    14    5   10 ar
    15    5    6 ar
    16    6    7 ar
    17    6   48 1
    18    7    8 ar
    19    7   49 1
    20    8    9 ar
    21    8   11 1
    22    9   10 ar
    23    9   50 1
    24   10   51 1
    25   11   12 2
    26   11   13 1
    27   13   18 ar
    28   13   14 ar
    29   14   15 ar
    30   14   52 1
    31   15   16 ar
    32   15   53 1
    33   16   17 ar
    34   16   54 1
    35   17   18 ar
    36   17   19 1
    37   18   55 1
    38   19   20 am
    39   19   56 1
    40   20   21 2
    41   20   22 1
    42   22   27 ar
    43   22   23 ar
    44   23   24 ar
    45   23   57 1
    46   24   25 ar
    47   24   58 1
    48   25   26 ar
    49   25   59 1
    50   26   27 ar
    51   26   28 1
    52   27   60 1
    53   28   29 1
    54   28   61 1
    55   28   62 1
    56   29   34 1
    57   29   30 1
    58   30   31 1
    59   30   63 1
    60   30   64 1
    61   31   32 1
    62   31   65 1
    63   31   66 1
    64   32   33 1
    65   32   35 1
    66   33   34 1
    67   33   67 1
    68   33   68 1
    69   34   69 1
    70   34   70 1
    71   35   36 2
    72   35   37 2
    73   35   38 1
    74   38   71 1
    75   38   72 1
    76   38   73 1
@<TRIPOS>MOLECULE
ZINC01830025
   67    71     0     0     0
SMALL
USER_CHARGES

@<TRIPOS>ATOM
      1 C1         -0.0522    1.4687   -0.1507 C.3       1 <0>        -0.1009
      2 C2         -0.0062   -0.0375   -0.1319 C.2       1 <0>         0.2516
      3 C3         -1.1717   -0.7512   -0.1520 C.2       1 <0>        -0.2828
      4 C4         -1.0823   -2.2598   -0.1322 C.3       1 <0>         0.2434
      5 H1         -1.6315   -2.6167    0.7391 H         1 <0>         0.1030
      6 N1          0.2809   -2.8597   -0.0919 N.am      1 <0>        -0.5779
      7 C5          0.5639   -4.1687   -0.0701 C.2       1 <0>         0.5528
      8 O1         -0.3231   -5.0021   -0.0824 O.2       1 <0>        -0.4550
      9 C6          1.9773   -4.5683   -0.0314 C.2       1 <0>        -0.2464
     10 C7          2.5223   -5.8123   -0.0046 C.2       1 <0>         0.1089
     11 C8          3.9751   -5.9797   -0.1261 C.ar      1 <0>        -0.1338
     12 C9          4.7482   -4.9938   -0.7512 C.ar      1 <0>        -0.0549
     13 C10         6.1114   -5.1583   -0.8614 C.ar      1 <0>        -0.1522
     14 C11         6.7219   -6.2954   -0.3569 C.ar      1 <0>        -0.0481
     15 C12         5.9718   -7.2769    0.2621 C.ar      1 <0>        -0.2120
     16 C13         4.6002   -7.1274    0.3890 C.ar      1 <0>         0.1715
     17 O2          3.8634   -8.0881    1.0022 O.3       1 <0>        -0.3093
     18 C14         4.5682   -9.2267    1.5010 C.3       1 <0>         0.0237
     19 S1          2.7845   -2.9752   -0.0301 S.3       1 <0>         0.1278
     20 C15         1.3210   -1.9592   -0.0771 C.2       1 <0>         0.3973
     21 N2          1.1655   -0.6595   -0.1015 N.2       1 <0>        -0.5159
     22 C16        -1.7814   -2.7817   -1.3609 C.ar      1 <0>        -0.0931
     23 C17        -1.1288   -2.7788   -2.5799 C.ar      1 <0>        -0.0874
     24 C18        -1.7676   -3.2562   -3.7079 C.ar      1 <0>        -0.1170
     25 C19        -3.0649   -3.7394   -3.6168 C.ar      1 <0>         0.0903
     26 C20        -3.7174   -3.7417   -2.3923 C.ar      1 <0>        -0.1154
     27 C21        -3.0724   -3.2679   -1.2664 C.ar      1 <0>        -0.0501
     28 O3         -3.6957   -4.2092   -4.7251 O.3       1 <0>        -0.2858
     29 C22        -3.3361   -5.4228   -5.1920 C.2       1 <0>         0.5503
     30 O4         -2.4099   -6.0217   -4.6792 O.2       1 <0>        -0.4643
     31 C23        -4.0608   -6.0191   -6.3163 C.2       1 <0>        -0.0696
     32 C24        -3.8056   -7.2369   -6.8811 C.2       1 <0>        -0.0972
     33 C25        -4.7346   -7.4025   -7.9195 C.2       1 <0>        -0.2278
     34 C26        -5.5067   -6.2933   -7.9434 C.2       1 <0>         0.0142
     35 O5         -5.1015   -5.4648   -6.9724 O.3       1 <0>        -0.1505
     36 C27        -2.4163   -0.1016   -0.1895 C.2       1 <0>         0.5307
     37 O6         -2.4679    1.1154   -0.2046 O.2       1 <0>        -0.5089
     38 O7         -3.5561   -0.8262   -0.2088 O.3       1 <0>        -0.3402
     39 C28        -4.7861   -0.0998   -0.2468 C.3       1 <0>         0.0702
     40 C29        -5.9585   -1.0827   -0.2640 C.3       1 <0>         0.0608
     41 O8         -5.9875   -1.8111    0.9651 O.3       1 <0>        -0.3845
     42 C30        -7.0510   -2.7615    1.0525 C.3       1 <0>         0.0300
     43 H2          0.9637    1.8635   -0.1354 H         1 <0>         0.0767
     44 H3         -0.5593    1.8055   -1.0549 H         1 <0>         0.0974
     45 H4         -0.5943    1.8266    0.7246 H         1 <0>         0.0979
     46 H5          1.8864   -6.6782    0.1061 H         1 <0>         0.1663
     47 H6          4.2766   -4.1063   -1.1465 H         1 <0>         0.1400
     48 H7          6.7072   -4.3975   -1.3437 H         1 <0>         0.1364
     49 H8          7.7913   -6.4154   -0.4485 H         1 <0>         0.1347
     50 H9          6.4561   -8.1601    0.6517 H         1 <0>         0.1383
     51 H10         3.8630   -9.9155    1.9662 H         1 <0>         0.1069
     52 H11         5.0768   -9.7285    0.6779 H         1 <0>         0.0613
     53 H12         5.3024   -8.9047    2.2395 H         1 <0>         0.0613
     54 H13        -0.1189   -2.4026   -2.6503 H         1 <0>         0.1173
     55 H14        -1.2576   -3.2530   -4.6599 H         1 <0>         0.1294
     56 H15        -4.7274   -4.1172   -2.3188 H         1 <0>         0.1335
     57 H16        -3.5782   -3.2736   -0.3122 H         1 <0>         0.1409
     58 H17        -3.0375   -7.9363   -6.5856 H         1 <0>         0.1665
     59 H18        -4.8172   -8.2559   -8.5762 H         1 <0>         0.1643
     60 H19        -6.3194   -6.1076   -8.6301 H         1 <0>         0.2175
     61 H20        -4.8591    0.5375    0.6344 H         1 <0>         0.0773
     62 H21        -4.8161    0.5172   -1.1449 H         1 <0>         0.0835
     63 H22        -6.8921   -0.5326   -0.3825 H         1 <0>         0.0725
     64 H23        -5.8382   -1.7773   -1.0953 H         1 <0>         0.0620
     65 H24        -7.0037   -3.2723    2.0142 H         1 <0>         0.0878
     66 H25        -8.0072   -2.2463    0.9613 H         1 <0>         0.0422
     67 H26        -6.9533   -3.4911    0.2485 H         1 <0>         0.0427
@<TRIPOS>BOND
     1    1    2 1
     2    1   43 1
     3    1   44 1
     4    1   45 1
     5    2   21 1
     6    2    3 2
     7    3    4 1
     8    3   36 1
     9    4    5 1
    10    4    6 1
    11    4   22 1
    12    6   20 1
    13    6    7 am
    14    7    8 2
    15    7    9 1
    16    9   10 2
    17    9   19 1
    18   10   11 1
    19   10   46 1
    20   11   16 ar
    21   11   12 ar
    22   12   13 ar
    23   12   47 1
    24   13   14 ar
    25   13   48 1
    26   14   15 ar
    27   14   49 1
    28   15   16 ar
    29   15   50 1
    30   16   17 1
    31   17   18 1
    32   18   51 1
    33   18   52 1
    34   18   53 1
    35   19   20 1
    36   20   21 2
    37   22   27 ar
    38   22   23 ar
    39   23   24 ar
    40   23   54 1
    41   24   25 ar
    42   24   55 1
    43   25   26 ar
    44   25   28 1
    45   26   27 ar
    46   26   56 1
    47   27   57 1
    48   28   29 1
    49   29   30 2
    50   29   31 1
    51   31   35 1
    52   31   32 2
    53   32   33 1
    54   32   58 1
    55   33   34 2
    56   33   59 1
    57   34   35 1
    58   34   60 1
    59   36   37 2
    60   36   38 1
    61   38   39 1
    62   39   40 1
    63   39   61 1
    64   39   62 1
    65   40   41 1
    66   40   63 1
    67   40   64 1
    68   41   42 1
    69   42   65 1
    70   42   66 1
    71   42   67 1
@<TRIPOS>MOLECULE
ZINC13060272
   51    53     0     0     0
SMALL
USER_CHARGES
4-[(4R)-4-(3-bromo-4-methoxy-phenyl)-5-ethoxycarbonyl-6-methyl-2-oxo-3,4-dihydropyrimidin-1-yl]benzoic acid
@<TRIPOS>ATOM
      1 C1         -8.5091   10.1197    0.9231 C.3       1 <0>        -0.1552
      2 C2         -7.1038    9.5224    0.8262 C.3       1 <0>         0.0649
      3 O1         -7.1992    8.1139    0.6046 O.3       1 <0>        -0.3478
      4 C3         -6.0404    7.4312    0.4948 C.2       1 <0>         0.5380
      5 O2         -4.9780    8.0175    0.5850 O.2       1 <0>        -0.5173
      6 C4         -6.0608    6.0335    0.2747 C.2       1 <0>        -0.2994
      7 C5         -4.9152    5.3280    0.1613 C.2       1 <0>         0.2771
      8 N1         -4.9367    3.9771   -0.0509 N.am      1 <0>        -0.4862
      9 C6         -6.0629    3.2620   -0.1659 C.2       1 <0>         0.7016
     10 O3         -5.9819    2.0646   -0.3587 O.2       1 <0>        -0.5387
     11 N2         -7.2833    3.8256   -0.0695 N.am      1 <0>        -0.7145
     12 C7         -7.3690    5.2778    0.1588 C.3       1 <0>         0.2470
     13 H1         -7.9332    5.4402    1.0772 H         1 <0>         0.0908
     14 C8         -8.1548    5.8810   -0.9768 C.ar      1 <0>        -0.1366
     15 C9         -7.8530    5.5400   -2.2825 C.ar      1 <0>        -0.0390
     16 C10        -8.5748    6.0877   -3.3254 C.ar      1 <0>        -0.2059
     17 C11        -9.5966    6.9883   -3.0628 C.ar      1 <0>         0.1586
     18 C12        -9.8944    7.3332   -1.7518 C.ar      1 <0>        -0.1291
     19 C13        -9.1722    6.7786   -0.7117 C.ar      1 <0>        -0.0123
     20 Br1       -11.2861    8.5609   -1.3889 Br        1 <0>        -0.0398
     21 O4        -10.3047    7.5323   -4.0875 O.3       1 <0>        -0.3040
     22 C14        -9.9432    7.1315   -5.4106 C.3       1 <0>         0.0246
     23 C15        -3.7165    3.3073   -0.1594 C.ar      1 <0>         0.0988
     24 C16        -3.1160    2.7712    0.9753 C.ar      1 <0>        -0.1109
     25 C17        -1.9129    2.1101    0.8722 C.ar      1 <0>        -0.0777
     26 C18        -1.2946    1.9778   -0.3746 C.ar      1 <0>        -0.0908
     27 C19        -1.8984    2.5224   -1.5118 C.ar      1 <0>        -0.0690
     28 C20        -3.1044    3.1772   -1.4019 C.ar      1 <0>        -0.1132
     29 C21        -0.0054    1.2707   -0.4891 C.2       1 <0>         0.4867
     30 O5          0.5206    0.8023    0.5010 O.co2     1 <0>        -0.6258
     31 C22        -3.5918    6.0406    0.2699 C.3       1 <0>        -0.1296
     32 H2         -9.0478    9.9338   -0.0061 H         1 <0>         0.0691
     33 H3         -9.0443    9.6569    1.7522 H         1 <0>         0.0657
     34 H4         -8.4364   11.1941    1.0921 H         1 <0>         0.0760
     35 H5         -6.5651    9.7084    1.7554 H         1 <0>         0.0652
     36 H6         -6.5687    9.9853   -0.0029 H         1 <0>         0.0640
     37 H7         -8.0863    3.2880   -0.1526 H         1 <0>         0.4317
     38 H8         -7.0550    4.8417   -2.4870 H         1 <0>         0.1240
     39 H9         -8.3409    5.8179   -4.3447 H         1 <0>         0.1358
     40 H10        -9.4033    7.0464    0.3087 H         1 <0>         0.1435
     41 H11        -8.9032    7.3976   -5.5995 H         1 <0>         0.0581
     42 H12       -10.0660    6.0530   -5.5099 H         1 <0>         0.0581
     43 H13       -10.5846    7.6381   -6.1318 H         1 <0>         0.1031
     44 H14        -3.5944    2.8735    1.9381 H         1 <0>         0.1210
     45 H15        -1.4474    1.6939    1.7534 H         1 <0>         0.1372
     46 H16        -1.4214    2.4260   -2.4759 H         1 <0>         0.1406
     47 H17        -3.5737    3.5943   -2.2806 H         1 <0>         0.1198
     48 H18        -2.7812    5.3215    0.1515 H         1 <0>         0.0816
     49 H19        -3.5221    6.7984   -0.5105 H         1 <0>         0.1043
     50 H20        -3.5148    6.5172    1.2471 H         1 <0>         0.1049
     51 O6          0.5864    1.1393   -1.6925 O.co2     1 <0>        -0.7486
@<TRIPOS>BOND
     1    1    2 1
     2    1   32 1
     3    1   33 1
     4    1   34 1
     5    2    3 1
     6    2   35 1
     7    2   36 1
     8    3    4 1
     9    4    5 2
    10    4    6 1
    11    6   12 1
    12    6    7 2
    13    7    8 1
    14    7   31 1
    15    8    9 am
    16    8   23 1
    17    9   10 2
    18    9   11 am
    19   11   12 1
    20   11   37 1
    21   12   13 1
    22   12   14 1
    23   14   19 ar
    24   14   15 ar
    25   15   16 ar
    26   15   38 1
    27   16   17 ar
    28   16   39 1
    29   17   18 ar
    30   17   21 1
    31   18   19 ar
    32   18   20 1
    33   19   40 1
    34   21   22 1
    35   22   41 1
    36   22   42 1
    37   22   43 1
    38   23   28 ar
    39   23   24 ar
    40   24   25 ar
    41   24   44 1
    42   25   26 ar
    43   25   45 1
    44   26   27 ar
    45   26   29 1
    46   27   28 ar
    47   27   46 1
    48   28   47 1
    49   29   30 2
    50   29   51 1
    51   31   48 1
    52   31   49 1
    53   31   50 1
@<TRIPOS>MOLECULE
ZINC13260177
   51    54     0     0     0
SMALL
USER_CHARGES
5-chloro-2-[(5-indolin-1-ylsulfonyl-2-methoxy-benzoyl)amino]benzoic acid
@<TRIPOS>ATOM
      1 C1         -1.6317   -4.7170    0.2085 C.3       1 <0>         0.0162
      2 O1         -1.7405   -3.2933    0.1518 O.3       1 <0>        -0.2700
      3 C2         -2.9812   -2.7774   -0.0348 C.ar      1 <0>         0.2401
      4 C3         -4.0748   -3.6212   -0.1609 C.ar      1 <0>        -0.2395
      5 C4         -5.3370   -3.0948   -0.3504 C.ar      1 <0>         0.0450
      6 C5         -5.5217   -1.7233   -0.4166 C.ar      1 <0>        -0.7258
      7 C6         -4.4476   -0.8700   -0.2876 C.ar      1 <0>         0.0633
      8 C7         -3.1639   -1.3894   -0.1007 C.ar      1 <0>        -0.1804
      9 C8         -2.0088   -0.4820    0.0325 C.2       1 <0>         0.5605
     10 O2         -0.8940   -0.9376    0.2000 O.2       1 <0>        -0.5135
     11 N1         -2.1890    0.8521   -0.0315 N.am      1 <0>        -0.6435
     12 C9         -1.0884    1.7044   -0.0202 C.ar      1 <0>         0.1767
     13 C10        -0.0351    1.4722    0.8544 C.ar      1 <0>        -0.1196
     14 C11         1.0579    2.3148    0.8603 C.ar      1 <0>        -0.0973
     15 C12         1.1117    3.4007   -0.0006 C.ar      1 <0>        -0.0601
     16 C13         0.0727    3.6502   -0.8719 C.ar      1 <0>        -0.0516
     17 C14        -1.0407    2.8057   -0.8887 C.ar      1 <0>        -0.1249
     18 C15        -2.1547    3.0661   -1.8177 C.2       1 <0>         0.4949
     19 O3         -3.1071    2.3122   -1.8506 O.co2     1 <0>        -0.6247
     20 Cl1         2.4937    4.4511    0.0193 Cl        1 <0>        -0.0875
     21 S1         -7.1388   -1.0670   -0.6594 S.o2      1 <0>         2.6938
     22 O4         -6.9718    0.2233   -1.2308 O.2       1 <0>        -0.9226
     23 O5         -7.9005   -2.0870   -1.2907 O.2       1 <0>        -0.9426
     24 N2         -7.8046   -0.8382    0.8395 N.pl3     1 <0>        -0.9381
     25 C16        -7.6943    0.3918    1.6283 C.3       1 <0>         0.1085
     26 C17        -8.4703    0.1097    2.9253 C.3       1 <0>        -0.0816
     27 C18        -8.9767   -1.3061    2.7644 C.ar      1 <0>        -0.1309
     28 C19        -8.5577   -1.7867    1.5333 C.ar      1 <0>         0.1636
     29 C20        -8.9127   -3.0832    1.1555 C.ar      1 <0>        -0.1558
     30 C21        -9.6720   -3.8690    1.9963 C.ar      1 <0>        -0.0867
     31 C22       -10.0877   -3.3788    3.2204 C.ar      1 <0>        -0.1461
     32 C23        -9.7326   -2.0991    3.6056 C.ar      1 <0>        -0.0772
     33 H1         -1.9896   -5.1463   -0.7272 H         1 <0>         0.0607
     34 H2         -0.5890   -4.9959    0.3609 H         1 <0>         0.1070
     35 H3         -2.2333   -5.0947    1.0352 H         1 <0>         0.0599
     36 H4         -3.9389   -4.6915   -0.1104 H         1 <0>         0.1465
     37 H5         -6.1853   -3.7561   -0.4480 H         1 <0>         0.1461
     38 H6         -4.5970    0.1985   -0.3353 H         1 <0>         0.1583
     39 H7         -3.0855    1.2184   -0.0853 H         1 <0>         0.4207
     40 H8         -0.0692    0.6285    1.5277 H         1 <0>         0.1370
     41 H9          1.8764    2.1271    1.5394 H         1 <0>         0.1297
     42 H10         0.1194    4.4969   -1.5408 H         1 <0>         0.1455
     43 H11        -6.6490    0.6052    1.8519 H         1 <0>         0.0869
     44 H12        -8.1451    1.2267    1.0919 H         1 <0>         0.0948
     45 H13        -7.8079    0.1809    3.7880 H         1 <0>         0.0916
     46 H14        -9.3052    0.8030    3.0274 H         1 <0>         0.0924
     47 H15        -8.5909   -3.4723    0.2008 H         1 <0>         0.1428
     48 H16        -9.9426   -4.8710    1.6978 H         1 <0>         0.1290
     49 H17       -10.6823   -3.9964    3.8772 H         1 <0>         0.1253
     50 H18       -10.0576   -1.7143    4.5609 H         1 <0>         0.1244
     51 O6         -2.1171    4.1402   -2.6306 O.co2     1 <0>        -0.7409
@<TRIPOS>BOND
     1    1    2 1
     2    1   33 1
     3    1   34 1
     4    1   35 1
     5    2    3 1
     6    3    8 ar
     7    3    4 ar
     8    4    5 ar
     9    4   36 1
    10    5    6 ar
    11    5   37 1
    12    6    7 ar
    13    6   21 1
    14    7    8 ar
    15    7   38 1
    16    8    9 1
    17    9   10 2
    18    9   11 am
    19   11   12 1
    20   11   39 1
    21   12   17 ar
    22   12   13 ar
    23   13   14 ar
    24   13   40 1
    25   14   15 ar
    26   14   41 1
    27   15   16 ar
    28   15   20 1
    29   16   17 ar
    30   16   42 1
    31   17   18 1
    32   18   19 2
    33   18   51 1
    34   21   22 2
    35   21   23 2
    36   21   24 1
    37   24   28 1
    38   24   25 1
    39   25   26 1
    40   25   43 1
    41   25   44 1
    42   26   27 1
    43   26   45 1
    44   26   46 1
    45   27   32 ar
    46   27   28 ar
    47   28   29 ar
    48   29   30 ar
    49   29   47 1
    50   30   31 ar
    51   30   48 1
    52   31   32 ar
    53   31   49 1
    54   32   50 1
@<TRIPOS>MOLECULE
ZINC35023493
   58    61     0     0     0
SMALL
USER_CHARGES

@<TRIPOS>ATOM
      1 C1         -1.3079    1.0109   -1.1169 C.3       1 <0>         0.0236
      2 O1         -0.8400   -0.2872   -0.7451 O.3       1 <0>        -0.3022
      3 C2          0.2359   -0.7723   -1.4203 C.ar      1 <0>         0.1429
      4 C3          0.8317   -0.0134   -2.4146 C.ar      1 <0>        -0.1943
      5 C4          1.9256   -0.5080   -3.1002 C.ar      1 <0>        -0.0412
      6 C5          2.4283   -1.7599   -2.7966 C.ar      1 <0>        -0.0659
      7 C6          1.8400   -2.5230   -1.8059 C.ar      1 <0>        -0.0293
      8 C7          0.7453   -2.0311   -1.1101 C.ar      1 <0>         0.1404
      9 N1          0.1502   -2.8009   -0.1018 N.am      1 <0>        -0.6746
     10 C8          0.0961   -4.1423   -0.2212 C.2       1 <0>         0.5234
     11 O2          0.6294   -4.6892   -1.1635 O.2       1 <0>        -0.4652
     12 C9         -0.6268   -4.9626    0.8158 C.3       1 <0>        -0.0620
     13 H1         -1.6736   -4.6615    0.8567 H         1 <0>         0.0818
     14 C10         0.0234   -4.7501    2.1846 C.3       1 <0>        -0.0126
     15 H2          1.1031   -4.8695    2.0943 H         1 <0>         0.1130
     16 C11        -0.5070   -5.7502    3.1697 C.2       1 <0>        -0.1449
     17 C12        -1.1283   -6.8361    2.8375 C.2       1 <0>        -0.1257
     18 C13        -1.4149   -7.2411    1.4212 C.3       1 <0>        -0.0070
     19 H3         -2.4622   -7.0429    1.1936 H         1 <0>         0.0742
     20 C14        -0.5319   -6.4503    0.4544 C.3       1 <0>        -0.1386
     21 H4         -0.8769   -6.6016   -0.5684 H         1 <0>         0.0742
     22 C15         0.8961   -6.9134    0.5856 C.2       1 <0>         0.5037
     23 O3          1.1371   -8.0448    0.9710 O.co2     1 <0>        -0.6694
     24 O4          1.8105   -6.1568    0.3063 O.co2     1 <0>        -0.6806
     25 C16        -1.1380   -8.7134    1.2570 C.ar      1 <0>         0.0149
     26 C17        -0.7910   -9.4781    2.3550 C.ar      1 <0>        -0.1058
     27 C18        -0.5371  -10.8285    2.2044 C.ar      1 <0>        -0.1178
     28 C19        -0.6307  -11.4144    0.9558 C.ar      1 <0>        -0.1472
     29 C20        -0.9786  -10.6498   -0.1420 C.ar      1 <0>        -0.1157
     30 C21        -1.2367   -9.3003    0.0093 C.ar      1 <0>        -0.1185
     31 C22        -0.2859   -3.3587    2.6740 C.ar      1 <0>        -0.0756
     32 C23        -1.5983   -2.9697    2.8670 C.ar      1 <0>        -0.1131
     33 C24        -1.8821   -1.6935    3.3158 C.ar      1 <0>        -0.1187
     34 C25        -0.8535   -0.8063    3.5721 C.ar      1 <0>        -0.1255
     35 C26         0.4590   -1.1955    3.3800 C.ar      1 <0>        -0.1193
     36 C27         0.7429   -2.4732    2.9352 C.ar      1 <0>        -0.1141
     37 N2          3.5992   -2.2842   -3.5350 N.pl3     1 <0>         0.0395
     38 O5          4.1147   -1.6181   -4.4023 O.2       1 <0>        -0.1771
     39 O6          4.0399   -3.3786   -3.2709 O.3       1 <0>        -0.1444
     40 H5         -0.5130    1.7410   -0.9646 H         1 <0>         0.0600
     41 H6         -1.5996    1.0049   -2.1671 H         1 <0>         0.0600
     42 H7         -2.1681    1.2768   -0.5024 H         1 <0>         0.1052
     43 H8          0.4414    0.9646   -2.6544 H         1 <0>         0.1511
     44 H9          2.3885    0.0848   -3.8752 H         1 <0>         0.1528
     45 H10         2.2345   -3.5005   -1.5712 H         1 <0>         0.1867
     46 H11        -0.2230   -2.3684    0.6822 H         1 <0>         0.4133
     47 H12        -0.3609   -5.5518    4.2213 H         1 <0>         0.1027
     48 H13        -1.4616   -7.4911    3.6289 H         1 <0>         0.1062
     49 H14        -0.7178   -9.0204    3.3305 H         1 <0>         0.1104
     50 H15        -0.2652  -11.4259    3.0621 H         1 <0>         0.1057
     51 H16        -0.4316  -12.4693    0.8380 H         1 <0>         0.1050
     52 H17        -1.0515  -11.1075   -1.1176 H         1 <0>         0.1063
     53 H18        -1.5122   -8.7037   -0.8478 H         1 <0>         0.1048
     54 H19        -2.4020   -3.6629    2.6668 H         1 <0>         0.1238
     55 H20        -2.9075   -1.3894    3.4660 H         1 <0>         0.1197
     56 H21        -1.0752    0.1911    3.9221 H         1 <0>         0.1175
     57 H22         1.2626   -0.5023    3.5799 H         1 <0>         0.1193
     58 H23         1.7684   -2.7785    2.7887 H         1 <0>         0.1241
@<TRIPOS>BOND
     1    1    2 1
     2    1   40 1
     3    1   41 1
     4    1   42 1
     5    2    3 1
     6    3    8 ar
     7    3    4 ar
     8    4    5 ar
     9    4   43 1
    10    5    6 ar
    11    5   44 1
    12    6    7 ar
    13    6   37 1
    14    7    8 ar
    15    7   45 1
    16    8    9 1
    17    9   10 am
    18    9   46 1
    19   10   11 2
    20   10   12 1
    21   12   13 1
    22   12   20 1
    23   12   14 1
    24   14   15 1
    25   14   16 1
    26   14   31 1
    27   16   17 2
    28   16   47 1
    29   17   18 1
    30   17   48 1
    31   18   19 1
    32   18   20 1
    33   18   25 1
    34   20   21 1
    35   20   22 1
    36   22   23 2
    37   22   24 1
    38   25   30 ar
    39   25   26 ar
    40   26   27 ar
    41   26   49 1
    42   27   28 ar
    43   27   50 1
    44   28   29 ar
    45   28   51 1
    46   29   30 ar
    47   29   52 1
    48   30   53 1
    49   31   36 ar
    50   31   32 ar
    51   32   33 ar
    52   32   54 1
    53   33   34 ar
    54   33   55 1
    55   34   35 ar
    56   34   56 1
    57   35   36 ar
    58   35   57 1
    59   36   58 1
    60   37   38 2
    61   37   39 1
@<TRIPOS>MOLECULE
ZINC36065056
   60    63     0     0     0
SMALL
USER_CHARGES

@<TRIPOS>ATOM
      1 C1         -0.7520    1.3433   -3.8261 C.3       1 <0>        -0.1684
      2 C2         -1.0302    1.3915   -2.3224 C.3       1 <0>         0.0801
      3 C3         -0.8440    2.8229   -1.8149 C.3       1 <0>        -0.1470
      4 O1         -2.3720    0.9682   -2.0724 O.3       1 <0>        -0.3415
      5 C4         -2.5590   -0.3382   -1.7815 C.2       1 <0>         0.5614
      6 O2         -1.6220   -1.1154   -1.8385 O.2       1 <0>        -0.5000
      7 C5         -3.8293   -0.7987   -1.4145 C.2       1 <0>        -0.2912
      8 C6         -4.7819   -1.1016   -2.3685 C.2       1 <0>         0.1599
      9 N1         -5.9782   -1.5359   -2.0072 N.2       1 <0>        -0.5772
     10 C7         -6.3675   -1.7167   -0.7619 C.2       1 <0>         0.3199
     11 N2         -5.5770   -1.4762    0.3270 N.pl3     1 <0>        -0.5176
     12 C8         -4.2023   -0.9873    0.0390 C.3       1 <0>         0.2767
     13 H1         -3.4939   -1.6894    0.4788 H         1 <0>         0.0923
     14 C9         -4.0297    0.3367    0.7377 C.ar      1 <0>        -0.1159
     15 C10        -5.0996    1.2037    0.8503 C.ar      1 <0>        -0.0438
     16 C11        -4.9418    2.4187    1.4907 C.ar      1 <0>        -0.1498
     17 C12        -3.7135    2.7693    2.0206 C.ar      1 <0>        -0.0784
     18 C13        -2.6410    1.9058    1.9111 C.ar      1 <0>        -0.2086
     19 C14        -2.7981    0.6836    1.2734 C.ar      1 <0>         0.1413
     20 O3         -1.7458   -0.1701    1.1693 O.3       1 <0>        -0.3099
     21 C15        -0.5351    0.2094    1.8268 C.3       1 <0>         0.0304
     22 C16        -6.1309   -1.7153    1.5688 C.2       1 <0>         0.2370
     23 C17        -7.4041   -2.1660    1.6112 C.2       1 <0>        -0.3038
     24 S1         -7.8224   -2.2520   -0.1186 S.3       1 <0>         0.1529
     25 C18        -5.3626   -1.4882    2.8013 C.2       1 <0>        -0.4662
     26 C19        -5.8707   -1.8645    3.9906 C.2       1 <0>         0.5031
     27 O4         -7.0251   -2.5728    4.0408 O.3       1 <0>        -0.7031
     28 N3         -5.2136   -1.5277    5.1619 N.pl3     1 <0>        -0.7530
     29 C20        -5.7663   -1.9369    6.4555 C.3       1 <0>         0.1714
     30 C21        -4.8541   -1.4416    7.5795 C.3       1 <0>        -0.1622
     31 C22        -5.4345   -0.4242    8.5639 C.3       1 <0>        -0.1794
     32 C23        -5.1972   -1.8690    9.0080 C.3       1 <0>        -0.1766
     33 C24        -4.4561   -0.9356   -3.8305 C.3       1 <0>         0.5212
     34 F1         -3.1030   -0.6099   -3.9727 F         1 <0>        -0.1647
     35 F2         -4.7213   -2.1315   -4.5061 F         1 <0>        -0.1652
     36 F3         -5.2415    0.0888   -4.3699 F         1 <0>        -0.1658
     37 H2          0.2391    1.7508   -4.0255 H         1 <0>         0.0676
     38 H3         -0.7962    0.3102   -4.1709 H         1 <0>         0.0628
     39 H4         -1.5007    1.9346   -4.3533 H         1 <0>         0.0637
     40 H5         -0.3375    0.7290   -1.8033 H         1 <0>         0.0789
     41 H6         -1.5940    3.4700   -2.2697 H         1 <0>         0.0660
     42 H7         -0.9570    2.8416   -0.7310 H         1 <0>         0.0596
     43 H8          0.1516    3.1766   -2.0826 H         1 <0>         0.0720
     44 H9         -6.0598    0.9322    0.4373 H         1 <0>         0.1161
     45 H10        -5.7791    3.0953    1.5771 H         1 <0>         0.1210
     46 H11        -3.5927    3.7191    2.5202 H         1 <0>         0.1207
     47 H12        -1.6819    2.1801    2.3251 H         1 <0>         0.1246
     48 H13        -0.2274    1.1960    1.4804 H         1 <0>         0.0514
     49 H14        -0.7000    0.2375    2.9038 H         1 <0>         0.0544
     50 H15         0.2456   -0.5160    1.5975 H         1 <0>         0.0971
     51 H16        -8.0107   -2.4109    2.4705 H         1 <0>         0.2337
     52 H17        -4.3907   -1.0197    2.7532 H         1 <0>         0.0861
     53 H18        -4.3874   -1.0208    5.1260 H         1 <0>         0.3843
     54 H19        -6.7604   -1.5070    6.5783 H         1 <0>         0.0527
     55 H20        -5.8332   -3.0242    6.4944 H         1 <0>         0.0539
     56 H21        -3.7991   -1.3478    7.3219 H         1 <0>         0.1029
     57 H22        -4.7614    0.3392    8.9540 H         1 <0>         0.0899
     58 H23        -6.4663   -0.1078    8.4107 H         1 <0>         0.0950
     59 H24        -6.0728   -2.5031    9.1470 H         1 <0>         0.0954
     60 H25        -4.3680   -2.0561    9.6903 H         1 <0>         0.0917
@<TRIPOS>BOND
     1    1    2 1
     2    1   37 1
     3    1   38 1
     4    1   39 1
     5    2    3 1
     6    2    4 1
     7    2   40 1
     8    3   41 1
     9    3   42 1
    10    3   43 1
    11    4    5 1
    12    5    6 2
    13    5    7 1
    14    7   12 1
    15    7    8 2
    16    8    9 1
    17    8   33 1
    18    9   10 2
    19   10   24 1
    20   10   11 1
    21   11   12 1
    22   11   22 1
    23   12   13 1
    24   12   14 1
    25   14   19 ar
    26   14   15 ar
    27   15   16 ar
    28   15   44 1
    29   16   17 ar
    30   16   45 1
    31   17   18 ar
    32   17   46 1
    33   18   19 ar
    34   18   47 1
    35   19   20 1
    36   20   21 1
    37   21   48 1
    38   21   49 1
    39   21   50 1
    40   22   23 2
    41   22   25 1
    42   23   24 1
    43   23   51 1
    44   25   26 2
    45   25   52 1
    46   26   27 1
    47   26   28 1
    48   28   29 1
    49   28   53 1
    50   29   30 1
    51   29   54 1
    52   29   55 1
    53   30   32 1
    54   30   31 1
    55   30   56 1
    56   31   32 1
    57   31   57 1
    58   31   58 1
    59   32   59 1
    60   32   60 1
    61   33   34 1
    62   33   35 1
    63   33   36 1
@<TRIPOS>MOLECULE
ZINC13407643
   47    51     0     0     0
SMALL
USER_CHARGES

@<TRIPOS>ATOM
      1 C1          0.6770    1.4986   -0.1446 C.3       1 <0>        -0.1271
      2 C2          0.6377   -0.0079   -0.1396 C.2       1 <0>        -0.0533
      3 C3          0.2121   -0.7329   -1.2641 C.2       1 <0>        -0.1829
      4 C4         -0.2282   -0.2147   -2.5244 C.2       1 <0>         0.0678
      5 C5         -0.6068   -1.0613   -3.5089 C.2       1 <0>        -0.2301
      6 C6         -0.5744   -2.4543   -3.3124 C.2       1 <0>         0.5421
      7 O1         -0.9188   -3.2056   -4.2092 O.2       1 <0>        -0.5493
      8 N1         -0.1620   -2.9569   -2.1318 N.am      1 <0>        -0.5731
      9 H1         -0.1408   -3.9175   -1.9994 H         1 <0>         0.4156
     10 C7          0.2238   -2.1298   -1.1258 C.2       1 <0>         0.0141
     11 S1          0.7772   -2.4098    0.4282 S.3       1 <0>         0.2314
     12 C8          1.0200   -0.7266    0.9568 C.2       1 <0>        -0.1849
     13 C9          1.4917   -0.2506    2.2067 C.2       1 <0>         0.5541
     14 O2          1.5972    0.9539    2.4033 O.co2     1 <0>        -0.6582
     15 O3          1.7937   -1.0441    3.0899 O.co2     1 <0>        -0.6792
     16 C10        -0.2702    1.2742   -2.7536 C.3       1 <0>        -0.0944
     17 S2         -1.8355    1.9392   -2.1225 S.3       1 <0>         0.0485
     18 C11        -1.7323    3.6655   -2.4603 C.2       1 <0>         0.1751
     19 N2         -0.7327    4.2868   -3.0448 N.2       1 <0>        -0.2769
     20 N3         -0.9832    5.5438   -3.1347 N.2       1 <0>        -0.2420
     21 C12        -2.1615    5.8063   -2.6121 C.2       1 <0>         0.2620
     22 N4         -2.6811    4.6081   -2.1680 N.pl3     1 <0>        -0.4125
     23 C13        -3.9201    4.3997   -1.5449 C.ar      1 <0>         0.0931
     24 C14        -5.0970    4.6239   -2.2462 C.ar      1 <0>        -0.0611
     25 C15        -6.3163    4.4182   -1.6309 C.ar      1 <0>        -0.1415
     26 C16        -6.3653    3.9886   -0.3153 C.ar      1 <0>         0.1210
     27 C17        -5.1923    3.7650    0.3859 C.ar      1 <0>        -0.1362
     28 C18        -3.9711    3.9636   -0.2280 C.ar      1 <0>        -0.0618
     29 F1         -7.5589    3.7879    0.2849 F         1 <0>        -0.1305
     30 C19        -2.8051    7.1258   -2.5233 C.2       1 <0>         0.0412
     31 C20        -2.4391    8.2428   -3.2130 C.2       1 <0>        -0.1353
     32 C21        -3.3223    9.2678   -2.8223 C.2       1 <0>        -0.2130
     33 C22        -4.1746    8.7349   -1.9243 C.2       1 <0>        -0.0156
     34 O4         -3.8635    7.4397   -1.7502 O.3       1 <0>        -0.1660
     35 H2          1.6038    1.8363   -0.6084 H         1 <0>         0.0644
     36 H3         -0.1728    1.8823   -0.7092 H         1 <0>         0.0665
     37 H4          0.6283    1.8667    0.8802 H         1 <0>         0.1102
     38 H5         -0.9381   -0.6635   -4.4567 H         1 <0>         0.1535
     39 H6          0.5620    1.7459   -2.2311 H         1 <0>         0.1340
     40 H7         -0.1923    1.4798   -3.8212 H         1 <0>         0.1138
     41 H8         -5.0592    4.9592   -3.2721 H         1 <0>         0.1380
     42 H9         -7.2321    4.5928   -2.1760 H         1 <0>         0.1479
     43 H10        -5.2324    3.4306    1.4121 H         1 <0>         0.1524
     44 H11        -3.0565    3.7842    0.3176 H         1 <0>         0.1478
     45 H12        -1.6286    8.3259   -3.9219 H         1 <0>         0.1621
     46 H13        -3.3172   10.2885   -3.1752 H         1 <0>         0.1580
     47 H14        -4.9776    9.2612   -1.4296 H         1 <0>         0.2103
@<TRIPOS>BOND
     1    1    2 1
     2    1   35 1
     3    1   36 1
     4    1   37 1
     5    2   12 2
     6    2    3 1
     7    3   10 2
     8    3    4 1
     9    4    5 2
    10    4   16 1
    11    5    6 1
    12    5   38 1
    13    6    7 2
    14    6    8 am
    15    8    9 1
    16    8   10 1
    17   10   11 1
    18   11   12 1
    19   12   13 1
    20   13   14 2
    21   13   15 1
    22   16   17 1
    23   16   39 1
    24   16   40 1
    25   17   18 1
    26   18   22 1
    27   18   19 2
    28   19   20 1
    29   20   21 2
    30   21   22 1
    31   21   30 1
    32   22   23 1
    33   23   28 ar
    34   23   24 ar
    35   24   25 ar
    36   24   41 1
    37   25   26 ar
    38   25   42 1
    39   26   27 ar
    40   26   29 1
    41   27   28 ar
    42   27   43 1
    43   28   44 1
    44   30   34 1
    45   30   31 2
    46   31   32 1
    47   31   45 1
    48   32   33 2
    49   32   46 1
    50   33   34 1
    51   33   47 1
@<TRIPOS>MOLECULE
ZINC05595813
   42    44     0     0     0
SMALL
USER_CHARGES
N-[1-(4-bromophenyl)ethylideneamino]-5-(p-tolyl)-2H-pyrazole-3-carboxamide
@<TRIPOS>ATOM
      1 C1         -4.8484    0.6873    6.4754 C.3       1 <0>        -0.1182
      2 C2         -3.6380    1.0680    5.6624 C.ar      1 <0>        -0.0779
      3 C3         -3.5503    2.3321    5.1077 C.ar      1 <0>        -0.1216
      4 C4         -2.4439    2.6860    4.3622 C.ar      1 <0>        -0.0887
      5 C5         -1.4145    1.7675    4.1689 C.ar      1 <0>        -0.0195
      6 C6         -1.5106    0.4939    4.7250 C.ar      1 <0>        -0.0935
      7 C7         -2.6190    0.1521    5.4732 C.ar      1 <0>        -0.1194
      8 C8         -0.2222    2.1426    3.3681 C.2       1 <0>         0.0717
      9 C9          0.8861    1.3211    3.0928 C.2       1 <0>        -0.1254
     10 C10         1.7288    2.0938    2.3160 C.2       1 <0>        -0.0400
     11 N1          1.1154    3.3061    2.1679 N.pl3     1 <0>        -0.3789
     12 H1          1.4863    4.0784    1.6522 H         1 <0>         0.4502
     13 N2         -0.0083    3.3057    2.7897 N.2       1 <0>        -0.2472
     14 C11         3.0294    1.6907    1.7587 C.2       1 <0>         0.6087
     15 O1          3.4614    0.5729    1.9691 O.2       1 <0>        -0.4764
     16 N3          3.7423    2.5597    1.0150 N.am      1 <0>        -0.5879
     17 N4          4.9808    2.1759    0.4842 N.2       1 <0>        -0.2134
     18 C12         5.7195    3.0457   -0.1342 C.2       1 <0>         0.1411
     19 C13         6.9600    2.5981   -0.8635 C.3       1 <0>        -0.0972
     20 C14         5.3449    4.4718   -0.1231 C.ar      1 <0>        -0.0867
     21 C15         5.5608    5.2627   -1.2543 C.ar      1 <0>        -0.0783
     22 C16         5.2020    6.5942   -1.2396 C.ar      1 <0>        -0.0840
     23 C17         4.6407    7.1506   -0.1026 C.ar      1 <0>        -0.0785
     24 C18         4.4296    6.3739    1.0241 C.ar      1 <0>        -0.0858
     25 C19         4.7777    5.0395    1.0205 C.ar      1 <0>        -0.1215
     26 Br1         4.1597    8.9794   -0.0887 Br        1 <0>        -0.0349
     27 H2         -5.6045    0.2543    5.8204 H         1 <0>         0.0725
     28 H3         -4.5625   -0.0428    7.2326 H         1 <0>         0.0679
     29 H4         -5.2537    1.5749    6.9612 H         1 <0>         0.0675
     30 H5         -4.3488    3.0435    5.2585 H         1 <0>         0.1255
     31 H6         -2.3766    3.6732    3.9293 H         1 <0>         0.1291
     32 H7         -0.7176   -0.2236    4.5741 H         1 <0>         0.1280
     33 H8         -2.6927   -0.8337    5.9081 H         1 <0>         0.1272
     34 H9          1.0429    0.3025    3.4157 H         1 <0>         0.1720
     35 H10         3.3979    3.4508    0.8472 H         1 <0>         0.3833
     36 H11         6.7063    2.3516   -1.8945 H         1 <0>         0.0913
     37 H12         7.6973    3.4007   -0.8527 H         1 <0>         0.0860
     38 H13         7.3735    1.7181   -0.3708 H         1 <0>         0.0893
     39 H14         6.0030    4.8311   -2.1401 H         1 <0>         0.1449
     40 H15         5.3636    7.2056   -2.1151 H         1 <0>         0.1430
     41 H16         3.9911    6.8139    1.9075 H         1 <0>         0.1415
     42 H17         4.6119    4.4345    1.8997 H         1 <0>         0.1340
@<TRIPOS>BOND
     1    1    2 1
     2    1   27 1
     3    1   28 1
     4    1   29 1
     5    2    7 ar
     6    2    3 ar
     7    3    4 ar
     8    3   30 1
     9    4    5 ar
    10    4   31 1
    11    5    6 ar
    12    5    8 1
    13    6    7 ar
    14    6   32 1
    15    7   33 1
    16    8   13 2
    17    8    9 1
    18    9   10 2
    19    9   34 1
    20   10   11 1
    21   10   14 1
    22   11   12 1
    23   11   13 1
    24   14   15 2
    25   14   16 am
    26   16   17 1
    27   16   35 1
    28   17   18 2
    29   18   19 1
    30   18   20 1
    31   19   36 1
    32   19   37 1
    33   19   38 1
    34   20   25 ar
    35   20   21 ar
    36   21   22 ar
    37   21   39 1
    38   22   23 ar
    39   22   40 1
    40   23   24 ar
    41   23   26 1
    42   24   25 ar
    43   24   41 1
    44   25   42 1
@<TRIPOS>MOLECULE
ZINC14467121
   42    45     0     0     0
SMALL
USER_CHARGES
2-[(3aS,4S,9bS)-6-methyl-7-nitro-3a,4,5,9b-tetrahydro-3H-cyclopenta[c]quinolin-4-yl]-4,6-dichloro-phenol
@<TRIPOS>ATOM
      1 C1          4.4748    1.2184    0.2256 C.3       1 <0>        -0.1176
      2 C2          3.7993    1.0813    1.5657 C.ar      1 <0>        -0.0637
      3 C3          4.5561    1.1183    2.7159 C.ar      1 <0>        -0.0114
      4 C4          3.9503    0.9949    3.9526 C.ar      1 <0>        -0.0847
      5 C5          2.5803    0.8268    4.0286 C.ar      1 <0>        -0.0831
      6 C6          1.8162    0.7803    2.8822 C.ar      1 <0>        -0.0675
      7 C7          2.4143    0.9183    1.6262 C.ar      1 <0>         0.1471
      8 N1          1.7135    0.9077    0.4223 N.pl3     1 <0>        -0.6349
      9 C8          0.2704    0.6290    0.4987 C.3       1 <0>         0.1547
     10 H1          0.1037   -0.4440    0.5936 H         1 <0>         0.0869
     11 C9         -0.2568    1.3439    1.7255 C.3       1 <0>        -0.0928
     12 H2          0.0352    2.3941    1.7308 H         1 <0>         0.1049
     13 C10         0.3541    0.5619    2.9298 C.3       1 <0>        -0.0428
     14 H3          0.1626   -0.4989    2.7680 H         1 <0>         0.0974
     15 C11        -0.4877    1.0163    4.0634 C.2       1 <0>        -0.1492
     16 C12        -1.6903    1.3161    3.6149 C.2       1 <0>        -0.1542
     17 C13        -1.7318    1.1475    2.0940 C.3       1 <0>        -0.0945
     18 C14        -0.4192    1.1483   -0.7365 C.ar      1 <0>        -0.0903
     19 C15         0.1050    2.2306   -1.4175 C.ar      1 <0>        -0.0654
     20 C16        -0.5275    2.7084   -2.5512 C.ar      1 <0>        -0.0346
     21 C17        -1.6858    2.1035   -3.0067 C.ar      1 <0>        -0.0850
     22 C18        -2.2131    1.0206   -2.3289 C.ar      1 <0>        -0.0520
     23 C19        -1.5767    0.5369   -1.1936 C.ar      1 <0>         0.1319
     24 O1         -2.0906   -0.5313   -0.5280 O.3       1 <0>        -0.4811
     25 Cl1        -3.6659    0.2613   -2.9005 Cl        1 <0>        -0.0380
     26 Cl2         0.1332    4.0685   -3.4042 Cl        1 <0>        -0.0471
     27 N2          6.0235    1.2903    2.6277 N.pl3     1 <0>         0.0232
     28 O2          6.7542    0.6913    3.3962 O.2       1 <0>        -0.1550
     29 O3          6.5003    2.0310    1.7865 O.3       1 <0>        -0.1457
     30 H4          4.6058    2.2748   -0.0089 H         1 <0>         0.0970
     31 H5          5.4487    0.7300    0.2579 H         1 <0>         0.0721
     32 H6          3.8586    0.7496   -0.5416 H         1 <0>         0.0740
     33 H7          4.5441    1.0292    4.8541 H         1 <0>         0.1490
     34 H8          2.1049    0.7315    4.9937 H         1 <0>         0.1470
     35 H9          2.1626    0.3066   -0.2523 H         1 <0>         0.3743
     36 H10        -0.1741    1.0836    5.0947 H         1 <0>         0.1344
     37 H11        -2.5184    1.6454    4.2251 H         1 <0>         0.1367
     38 H12        -2.3555    1.9130    1.6324 H         1 <0>         0.0796
     39 H13        -2.0738    0.1495    1.8197 H         1 <0>         0.0831
     40 H14         1.0091    2.7040   -1.0641 H         1 <0>         0.1549
     41 H15        -2.1781    2.4780   -3.8920 H         1 <0>         0.1501
     42 H16        -2.6911   -0.2944    0.1920 H         1 <0>         0.3922
@<TRIPOS>BOND
     1    1    2 1
     2    1   30 1
     3    1   31 1
     4    1   32 1
     5    2    7 ar
     6    2    3 ar
     7    3    4 ar
     8    3   27 1
     9    4    5 ar
    10    4   33 1
    11    5    6 ar
    12    5   34 1
    13    6   13 1
    14    6    7 ar
    15    7    8 1
    16    8    9 1
    17    8   35 1
    18    9   10 1
    19    9   11 1
    20    9   18 1
    21   11   12 1
    22   11   17 1
    23   11   13 1
    24   13   14 1
    25   13   15 1
    26   15   16 2
    27   15   36 1
    28   16   17 1
    29   16   37 1
    30   17   38 1
    31   17   39 1
    32   18   23 ar
    33   18   19 ar
    34   19   20 ar
    35   19   40 1
    36   20   21 ar
    37   20   26 1
    38   21   22 ar
    39   21   41 1
    40   22   23 ar
    41   22   25 1
    42   23   24 1
    43   24   42 1
    44   27   28 2
    45   27   29 1
@<TRIPOS>MOLECULE
ZINC27534100
   60    63     0     0     0
SMALL
USER_CHARGES
3-(2-cyanospiro[4H-naphthalene-3,1'-cyclohexane]-1-yl)-1-[(4S)-2,2-dimethyltetrahydropyran-4-yl]urea
@<TRIPOS>ATOM
      1 C1          4.1970   -4.0801    2.5865 C.3       1 <0>        -0.1858
      2 C2          2.9355   -4.8622    2.2153 C.3       1 <0>         0.1172
      3 C3          2.1353   -4.0760    1.1735 C.3       1 <0>        -0.1487
      4 C4          1.6928   -2.7415    1.7815 C.3       1 <0>         0.1663
      5 H1          2.5610   -2.1024    2.0001 H         1 <0>         0.0934
      6 C5          0.8818   -3.0157    3.0517 C.3       1 <0>        -0.1671
      7 C6          1.7304   -3.8429    4.0210 C.3       1 <0>         0.0596
      8 O1          2.1341   -5.0560    3.3825 O.3       1 <0>        -0.3713
      9 N1          0.8629   -2.0149    0.8175 N.am      1 <0>        -0.7497
     10 C7          0.7656   -0.6725    0.8889 C.2       1 <0>         0.7105
     11 O2          1.3666   -0.0647    1.7534 O.2       1 <0>        -0.5659
     12 N2          0.0021   -0.0041    0.0020 N.am      1 <0>        -0.7126
     13 C8         -0.0151    1.3806    0.0083 C.2       1 <0>         0.2642
     14 C9         -1.1838    2.0501    0.1859 C.2       1 <0>        -0.0849
     15 C10        -1.2206    3.5552    0.1472 C.3       1 <0>         0.0133
     16 C11        -1.3316    4.0148   -1.3094 C.3       1 <0>        -0.1088
     17 C12        -1.3807    5.5429   -1.3597 C.3       1 <0>        -0.1215
     18 C13        -2.5981    6.0405   -0.5778 C.3       1 <0>        -0.1226
     19 C14        -2.4912    5.5801    0.8774 C.3       1 <0>        -0.1210
     20 C15        -2.4417    4.0520    0.9268 C.3       1 <0>        -0.1118
     21 C16         0.0477    4.1393    0.7673 C.3       1 <0>        -0.0797
     22 C17         1.2672    3.4943    0.1646 C.ar      1 <0>        -0.0444
     23 C18         1.2352    2.1411   -0.1839 C.ar      1 <0>        -0.0634
     24 C19         2.3823    1.5228   -0.6765 C.ar      1 <0>        -0.0722
     25 C20         3.5348    2.2617   -0.8549 C.ar      1 <0>        -0.1287
     26 C21         3.5525    3.6081   -0.5368 C.ar      1 <0>        -0.0974
     27 C22         2.4218    4.2225   -0.0260 C.ar      1 <0>        -0.1216
     28 C23        -2.3924    1.3176    0.4171 C.1       1 <0>         0.2566
     29 N3         -3.3511    0.7365    0.6005 N.1       1 <0>        -0.4218
     30 C24         3.3302   -6.2221    1.6359 C.3       1 <0>        -0.1407
     31 H2          4.8137   -3.9311    1.6879 H         1 <0>         0.0690
     32 H3          4.7712   -4.6447    3.3358 H         1 <0>         0.0679
     33 H4          3.9130   -3.1023    3.0026 H         1 <0>         0.0642
     34 H5          2.7656   -3.8892    0.2915 H         1 <0>         0.0808
     35 H6          1.2505   -4.6576    0.8753 H         1 <0>         0.0791
     36 H7          0.6062   -2.0612    3.5240 H         1 <0>         0.0789
     37 H8         -0.0303   -3.5727    2.7913 H         1 <0>         0.0734
     38 H9          2.6213   -3.2669    4.3118 H         1 <0>         0.0577
     39 H10         1.1380   -4.0792    4.9172 H         1 <0>         0.0984
     40 H11         0.3191   -2.5649    0.0353 H         1 <0>         0.4150
     41 H12        -0.6074   -0.5585   -0.7269 H         1 <0>         0.4308
     42 H13        -0.4581    3.6572   -1.8743 H         1 <0>         0.0691
     43 H14        -2.2495    3.6036   -1.7547 H         1 <0>         0.0656
     44 H15        -0.4641    5.9541   -0.9116 H         1 <0>         0.0687
     45 H16        -1.4572    5.8731   -2.4062 H         1 <0>         0.0656
     46 H17        -2.6327    7.1394   -0.6136 H         1 <0>         0.0641
     47 H18        -3.5148    5.6300   -1.0263 H         1 <0>         0.0620
     48 H19        -1.5746    5.9912    1.3256 H         1 <0>         0.0688
     49 H20        -3.3664    5.9369    1.4401 H         1 <0>         0.0654
     50 H21        -3.3568    3.6408    0.4758 H         1 <0>         0.0652
     51 H22        -2.3681    3.7212    1.9733 H         1 <0>         0.0676
     52 H23         0.0831    5.2223    0.5781 H         1 <0>         0.0969
     53 H24         0.0432    3.9566    1.8520 H         1 <0>         0.0875
     54 H25         2.3700    0.4702   -0.9180 H         1 <0>         0.1169
     55 H26         4.4241    1.7880   -1.2437 H         1 <0>         0.1240
     56 H27         4.4540    4.1834   -0.6876 H         1 <0>         0.1253
     57 H28         2.4445    5.2732    0.2231 H         1 <0>         0.1281
     58 H29         2.4231   -6.7842    1.3691 H         1 <0>         0.0649
     59 H30         3.9046   -6.7870    2.3849 H         1 <0>         0.0674
     60 H31         3.9467   -6.0728    0.7372 H         1 <0>         0.0723
@<TRIPOS>BOND
     1    1    2 1
     2    1   31 1
     3    1   32 1
     4    1   33 1
     5    2    8 1
     6    2    3 1
     7    2   30 1
     8    3    4 1
     9    3   34 1
    10    3   35 1
    11    4    5 1
    12    4    6 1
    13    4    9 1
    14    6    7 1
    15    6   36 1
    16    6   37 1
    17    7    8 1
    18    7   38 1
    19    7   39 1
    20    9   10 am
    21    9   40 1
    22   10   11 2
    23   10   12 am
    24   12   13 1
    25   12   41 1
    26   13   23 1
    27   13   14 2
    28   14   15 1
    29   14   28 1
    30   15   20 1
    31   15   16 1
    32   15   21 1
    33   16   17 1
    34   16   42 1
    35   16   43 1
    36   17   18 1
    37   17   44 1
    38   17   45 1
    39   18   19 1
    40   18   46 1
    41   18   47 1
    42   19   20 1
    43   19   48 1
    44   19   49 1
    45   20   50 1
    46   20   51 1
    47   21   22 1
    48   21   52 1
    49   21   53 1
    50   22   27 ar
    51   22   23 ar
    52   23   24 ar
    53   24   25 ar
    54   24   54 1
    55   25   26 ar
    56   25   55 1
    57   26   27 ar
    58   26   56 1
    59   27   57 1
    60   28   29 3
    61   30   58 1
    62   30   59 1
    63   30   60 1
@<TRIPOS>MOLECULE
ZINC34932976
   57    60     0     0     0
SMALL
USER_CHARGES

@<TRIPOS>ATOM
      1 C1          0.0072    1.5135    0.0370 C.3       1 <0>        -0.1318
      2 C2          0.0320   -0.0227    0.0255 C.3       1 <0>        -0.0675
      3 C3         -1.3950   -0.6361    0.0085 C.3       1 <0>        -0.1243
      4 C4         -1.0559   -2.0646   -0.4866 C.3       1 <0>         0.1407
      5 H1         -1.9418   -2.5754   -0.8853 H         1 <0>         0.0980
      6 C5         -0.4386   -2.8166    0.6900 C.3       1 <0>        -0.1177
      7 C6          0.7700   -2.1252    1.2947 C.3       1 <0>        -0.0527
      8 C7          0.7655   -0.6094    1.2302 C.3       1 <0>        -0.0976
      9 C8          2.0557   -2.6769    0.6622 C.3       1 <0>        -0.1434
     10 C9          0.8175   -2.5187    2.7927 C.3       1 <0>        -0.1476
     11 N1         -0.0297   -1.8702   -1.5300 N.am      1 <0>        -0.6038
     12 C10         0.6484   -0.5904   -1.2728 C.3       1 <0>         0.1017
     13 C11         0.2343   -2.7122   -2.5494 C.2       1 <0>         0.5269
     14 O1         -0.4003   -3.7390   -2.6677 O.2       1 <0>        -0.5363
     15 C12         1.3177   -2.3774   -3.5420 C.3       1 <0>         0.1240
     16 N2          1.4077   -3.4421   -4.5443 N.am      1 <0>        -0.7302
     17 C13         2.3138   -3.3569   -5.5384 C.2       1 <0>         0.7095
     18 O2          3.0566   -2.3965   -5.6033 O.2       1 <0>        -0.5697
     19 N3          2.3966   -4.3363   -6.4605 N.am      1 <0>        -0.6791
     20 C14         3.2687   -4.2043   -7.5429 C.ar      1 <0>         0.1673
     21 C15         4.4784   -3.5626   -7.3869 C.ar      1 <0>        -0.1203
     22 C16         5.3546   -3.4251   -8.4592 C.ar      1 <0>        -0.0937
     23 C17         5.0431   -3.9190   -9.6893 C.ar      1 <0>        -0.1238
     24 C18         3.8198   -4.5805   -9.8904 C.ar      1 <0>        -0.0360
     25 C19         2.9220   -4.7317   -8.8048 C.ar      1 <0>        -0.0637
     26 C20         1.7027   -5.3975   -9.0061 C.ar      1 <0>        -0.1094
     27 C21         1.4011   -5.8938  -10.2375 C.ar      1 <0>        -0.1144
     28 C22         2.2862   -5.7514  -11.3044 C.ar      1 <0>        -0.1156
     29 C23         3.4715   -5.1005  -11.1491 C.ar      1 <0>        -0.1036
     30 H2          1.0287    1.8935    0.0235 H         1 <0>         0.0620
     31 H3         -0.5266    1.8749   -0.8420 H         1 <0>         0.0623
     32 H4         -0.4982    1.8620    0.9377 H         1 <0>         0.0645
     33 H5         -1.8322   -0.6528    1.0062 H         1 <0>         0.0893
     34 H6         -2.0422   -0.1140   -0.6960 H         1 <0>         0.0770
     35 H7         -1.2029   -2.9454    1.4714 H         1 <0>         0.0723
     36 H8         -0.1496   -3.8254    0.3629 H         1 <0>         0.0666
     37 H9          1.8064   -0.2496    1.2229 H         1 <0>         0.0654
     38 H10         0.3077   -0.2153    2.1515 H         1 <0>         0.0664
     39 H11         2.0380   -2.4969   -0.4127 H         1 <0>         0.0529
     40 H12         2.9196   -2.1769    1.1001 H         1 <0>         0.0547
     41 H13         2.1222   -3.7485    0.8500 H         1 <0>         0.0530
     42 H14         0.9096   -3.6012    2.8814 H         1 <0>         0.0543
     43 H15         1.6750   -2.0410    3.2668 H         1 <0>         0.0551
     44 H16        -0.0986   -2.1906    3.2838 H         1 <0>         0.0548
     45 H17         0.4527    0.0967   -2.1018 H         1 <0>         0.0699
     46 H18         1.7190   -0.7300   -1.1663 H         1 <0>         0.0788
     47 H19         1.0808   -1.4342   -4.0341 H         1 <0>         0.1001
     48 H20         2.2714   -2.2865   -3.0219 H         1 <0>         0.0994
     49 H21         0.8151   -4.2083   -4.4925 H         1 <0>         0.4099
     50 H22         1.8503   -5.1330   -6.3722 H         1 <0>         0.4083
     51 H23         4.7492   -3.1614   -6.4214 H         1 <0>         0.1431
     52 H24         6.2970   -2.9181   -8.3135 H         1 <0>         0.1274
     53 H25         5.7355   -3.8022  -10.5098 H         1 <0>         0.1283
     54 H26         1.0075   -5.5157   -8.1881 H         1 <0>         0.1206
     55 H27         0.4623   -6.4056  -10.3897 H         1 <0>         0.1237
     56 H28         2.0235   -6.1548  -12.2711 H         1 <0>         0.1242
     57 H29         4.1471   -4.9963  -11.9853 H         1 <0>         0.1296
@<TRIPOS>BOND
     1    1    2 1
     2    1   30 1
     3    1   31 1
     4    1   32 1
     5    2    8 1
     6    2   12 1
     7    2    3 1
     8    3    4 1
     9    3   33 1
    10    3   34 1
    11    4    5 1
    12    4    6 1
    13    4   11 1
    14    6    7 1
    15    6   35 1
    16    6   36 1
    17    7    8 1
    18    7    9 1
    19    7   10 1
    20    8   37 1
    21    8   38 1
    22    9   39 1
    23    9   40 1
    24    9   41 1
    25   10   42 1
    26   10   43 1
    27   10   44 1
    28   11   12 1
    29   11   13 am
    30   12   45 1
    31   12   46 1
    32   13   14 2
    33   13   15 1
    34   15   16 1
    35   15   47 1
    36   15   48 1
    37   16   17 am
    38   16   49 1
    39   17   18 2
    40   17   19 am
    41   19   20 1
    42   19   50 1
    43   20   25 ar
    44   20   21 ar
    45   21   22 ar
    46   21   51 1
    47   22   23 ar
    48   22   52 1
    49   23   24 ar
    50   23   53 1
    51   24   29 ar
    52   24   25 ar
    53   25   26 ar
    54   26   27 ar
    55   26   54 1
    56   27   28 ar
    57   27   55 1
    58   28   29 ar
    59   28   56 1
    60   29   57 1
@<TRIPOS>MOLECULE
ZINC57458354
   43    45     0     0     0
SMALL
USER_CHARGES

@<TRIPOS>ATOM
      1 C1          0.3116    1.8597    0.3215 C.3       1 <0>        -0.1377
      2 C2          0.2569    0.3844    0.0189 C.2       1 <0>         0.2073
      3 C3         -0.9304   -0.1919   -0.2618 C.2       1 <0>        -0.2871
      4 C4         -0.9405   -1.6773   -0.5607 C.3       1 <0>         0.2496
      5 H1         -1.3664   -1.8172   -1.5543 H         1 <0>         0.0958
      6 N1          0.3556   -2.3752   -0.5201 N.am      1 <0>        -0.7125
      7 C5          1.4595   -1.6612   -0.2234 C.2       1 <0>         0.7053
      8 O1          2.5343   -2.2279   -0.1873 O.2       1 <0>        -0.5583
      9 N2          1.4114   -0.3468    0.0278 N.am      1 <0>        -0.5455
     10 C6          2.6658    0.3448    0.3353 C.3       1 <0>         0.0735
     11 C7         -1.8578   -2.3446    0.4315 C.ar      1 <0>        -0.1200
     12 C8         -1.4573   -2.5012    1.7456 C.ar      1 <0>        -0.0523
     13 C9         -2.2974   -3.1124    2.6568 C.ar      1 <0>        -0.1454
     14 C10        -3.5410   -3.5683    2.2537 C.ar      1 <0>         0.1365
     15 C11        -3.9416   -3.4111    0.9370 C.ar      1 <0>        -0.1287
     16 C12        -3.1010   -2.7943    0.0284 C.ar      1 <0>        -0.0458
     17 Br1        -5.6397   -4.0330    0.3841 Br        1 <0>        -0.0195
     18 F1         -4.3629   -4.1664    3.1437 F         1 <0>        -0.1202
     19 C13        -2.1271    0.5661   -0.2761 C.2       1 <0>         0.5996
     20 O2         -2.6160    0.9121   -1.3362 O.2       1 <0>        -0.5039
     21 N3         -2.7246    0.9042    0.8838 N.am      1 <0>        -0.6661
     22 C14        -3.9794    1.5239    0.8699 C.ar      1 <0>         0.1365
     23 C15        -4.9045    1.1992   -0.1135 C.ar      1 <0>        -0.0892
     24 C16        -6.1423    1.8115   -0.1251 C.ar      1 <0>        -0.1314
     25 C17        -6.4611    2.7491    0.8429 C.ar      1 <0>         0.0852
     26 C18        -5.5399    3.0747    1.8242 C.ar      1 <0>        -0.1328
     27 C19        -4.3032    2.4602    1.8430 C.ar      1 <0>        -0.1159
     28 F2         -7.6724    3.3473    0.8295 F         1 <0>        -0.1385
     29 H2          1.0023    2.3465   -0.3671 H         1 <0>         0.0947
     30 H3         -0.6824    2.2916    0.2049 H         1 <0>         0.0879
     31 H4          0.6544    2.0081    1.3454 H         1 <0>         0.0943
     32 H5          0.4134   -3.3262   -0.7022 H         1 <0>         0.4342
     33 H6          2.8833    0.2470    1.3988 H         1 <0>         0.0733
     34 H7          3.4762   -0.0980   -0.2436 H         1 <0>         0.0922
     35 H8          2.5710    1.4001    0.0794 H         1 <0>         0.0882
     36 H9         -0.4871   -2.1459    2.0600 H         1 <0>         0.1335
     37 H10        -1.9838   -3.2347    3.6830 H         1 <0>         0.1477
     38 H11        -3.4146   -2.6674   -0.9973 H         1 <0>         0.1451
     39 H12        -2.2849    0.7180    1.7281 H         1 <0>         0.4117
     40 H13        -4.6560    0.4685   -0.8690 H         1 <0>         0.1422
     41 H14        -6.8621    1.5593   -0.8897 H         1 <0>         0.1400
     42 H15        -5.7903    3.8068    2.5777 H         1 <0>         0.1402
     43 H16        -3.5868    2.7109    2.6114 H         1 <0>         0.1360
@<TRIPOS>BOND
     1    1    2 1
     2    1   29 1
     3    1   30 1
     4    1   31 1
     5    2    9 1
     6    2    3 2
     7    3    4 1
     8    3   19 1
     9    4    5 1
    10    4    6 1
    11    4   11 1
    12    6    7 am
    13    6   32 1
    14    7    8 2
    15    7    9 am
    16    9   10 1
    17   10   33 1
    18   10   34 1
    19   10   35 1
    20   11   16 ar
    21   11   12 ar
    22   12   13 ar
    23   12   36 1
    24   13   14 ar
    25   13   37 1
    26   14   15 ar
    27   14   18 1
    28   15   16 ar
    29   15   17 1
    30   16   38 1
    31   19   20 2
    32   19   21 am
    33   21   22 1
    34   21   39 1
    35   22   27 ar
    36   22   23 ar
    37   23   24 ar
    38   23   40 1
    39   24   25 ar
    40   24   41 1
    41   25   26 ar
    42   25   28 1
    43   26   27 ar
    44   26   42 1
    45   27   43 1
@<TRIPOS>MOLECULE
ZINC13022090
   57    60     0     0     0
SMALL
USER_CHARGES
4,6-dimethyl-2-[2-oxo-2-[[2-phenyl-5-(p-tolyl)pyrazol-3-yl]amino]ethyl]sulfanyl-pyridine-3-carboxylic acid
@<TRIPOS>ATOM
      1 C1          3.1248   -0.5771   12.6587 C.3       1 <0>        -0.1160
      2 C2          2.0323    0.0353   11.8205 C.ar      1 <0>        -0.0780
      3 C3          0.9491    0.6383   12.4341 C.ar      1 <0>        -0.1265
      4 C4         -0.0540    1.2011   11.6713 C.ar      1 <0>        -0.0858
      5 C5          0.0256    1.1607   10.2808 C.ar      1 <0>        -0.0233
      6 C6          1.1160    0.5466    9.6680 C.ar      1 <0>        -0.0823
      7 C7          2.1163   -0.0080   10.4405 C.ar      1 <0>        -0.1211
      8 C8         -1.0498    1.7642    9.4554 C.2       1 <0>         0.1386
      9 C9         -1.0932    1.7927    8.0487 C.2       1 <0>        -0.2548
     10 C10        -2.2346    2.4317    7.6809 C.2       1 <0>         0.3168
     11 N1         -2.8872    2.7998    8.8182 N.pl3     1 <0>        -0.3413
     12 N2         -2.1283    2.3656    9.9124 N.2       1 <0>        -0.2751
     13 C11        -4.1053    3.4887    8.8823 C.ar      1 <0>         0.1603
     14 C12        -4.4074    4.4577    7.9346 C.ar      1 <0>        -0.1498
     15 C13        -5.6114    5.1314    7.9975 C.ar      1 <0>        -0.0897
     16 C14        -6.5108    4.8499    9.0095 C.ar      1 <0>        -0.1252
     17 C15        -6.2106    3.8893    9.9578 C.ar      1 <0>        -0.0953
     18 C16        -5.0108    3.2080    9.8971 C.ar      1 <0>        -0.1113
     19 N3         -2.6584    2.6724    6.3743 N.am      1 <0>        -0.6500
     20 C17        -1.9083    2.2557    5.3350 C.2       1 <0>         0.5387
     21 O1         -0.8647    1.6713    5.5361 O.2       1 <0>        -0.4776
     22 C18        -2.3664    2.5159    3.9231 C.3       1 <0>        -0.1548
     23 S1         -1.1537    1.8407    2.7613 S.3       1 <0>         0.0589
     24 C19        -1.9191    2.2732    1.2343 C.ar      1 <0>         0.1079
     25 C20        -1.2994    1.9299    0.0187 C.ar      1 <0>        -0.1151
     26 C21        -1.9246    2.2897   -1.1812 C.ar      1 <0>        -0.0154
     27 C22        -3.1332    2.9600   -1.1175 C.ar      1 <0>        -0.1798
     28 C23        -3.6809    3.2629    0.1167 C.ar      1 <0>         0.1187
     29 N4         -3.0751    2.9204    1.2364 N.ar      1 <0>        -0.5003
     30 C24        -4.9950    3.9978    0.1820 C.3       1 <0>        -0.0926
     31 C25        -1.2989    1.9508   -2.5096 C.3       1 <0>        -0.1142
     32 C26        -0.0144    1.2111    0.0087 C.2       1 <0>         0.4999
     33 O2          0.0021   -0.0041    0.0020 O.co2     1 <0>        -0.6161
     34 H1          2.8872   -1.6220   12.8582 H         1 <0>         0.0710
     35 H2          4.0718   -0.5158   12.1225 H         1 <0>         0.0676
     36 H3          3.2055   -0.0365   13.6017 H         1 <0>         0.0656
     37 H4          0.8884    0.6690   13.5119 H         1 <0>         0.1235
     38 H5         -0.8993    1.6717   12.1513 H         1 <0>         0.1277
     39 H6          1.1803    0.5082    8.5906 H         1 <0>         0.1337
     40 H7          2.9641   -0.4804    9.9667 H         1 <0>         0.1280
     41 H8         -0.3512    1.3806    7.3808 H         1 <0>         0.1841
     42 H9         -3.7034    4.6811    7.1465 H         1 <0>         0.1280
     43 H10        -5.8490    5.8817    7.2579 H         1 <0>         0.1354
     44 H11        -7.4497    5.3813    9.0592 H         1 <0>         0.1303
     45 H12        -6.9151    3.6717   10.7470 H         1 <0>         0.1328
     46 H13        -4.7771    2.4576   10.6378 H         1 <0>         0.1351
     47 H14        -3.4931    3.1398    6.2136 H         1 <0>         0.4138
     48 H15        -2.4627    3.5900    3.7644 H         1 <0>         0.1241
     49 H16        -3.3317    2.0366    3.7601 H         1 <0>         0.1237
     50 H17        -3.6434    3.2488   -2.0246 H         1 <0>         0.1301
     51 H18        -4.8101    5.0718    0.2007 H         1 <0>         0.0718
     52 H19        -5.5951    3.7476   -0.6928 H         1 <0>         0.0704
     53 H20        -5.5302    3.7055    1.0854 H         1 <0>         0.0701
     54 H21        -1.6497    0.9722   -2.8374 H         1 <0>         0.0747
     55 H22        -1.5803    2.7032   -3.2463 H         1 <0>         0.0663
     56 H23        -0.2140    1.9318   -2.4059 H         1 <0>         0.0818
     57 O3          1.1435    1.9008    0.0013 O.co2     1 <0>        -0.7380
@<TRIPOS>BOND
     1    1    2 1
     2    1   34 1
     3    1   35 1
     4    1   36 1
     5    2    7 ar
     6    2    3 ar
     7    3    4 ar
     8    3   37 1
     9    4    5 ar
    10    4   38 1
    11    5    6 ar
    12    5    8 1
    13    6    7 ar
    14    6   39 1
    15    7   40 1
    16    8   12 2
    17    8    9 1
    18    9   10 2
    19    9   41 1
    20   10   11 1
    21   10   19 1
    22   11   12 1
    23   11   13 1
    24   13   18 ar
    25   13   14 ar
    26   14   15 ar
    27   14   42 1
    28   15   16 ar
    29   15   43 1
    30   16   17 ar
    31   16   44 1
    32   17   18 ar
    33   17   45 1
    34   18   46 1
    35   19   20 am
    36   19   47 1
    37   20   21 2
    38   20   22 1
    39   22   23 1
    40   22   48 1
    41   22   49 1
    42   23   24 1
    43   24   29 ar
    44   24   25 ar
    45   25   26 ar
    46   25   32 1
    47   26   27 ar
    48   26   31 1
    49   27   28 ar
    50   27   50 1
    51   28   29 ar
    52   28   30 1
    53   30   51 1
    54   30   52 1
    55   30   53 1
    56   31   54 1
    57   31   55 1
    58   31   56 1
    59   32   33 2
    60   32   57 1
@<TRIPOS>MOLECULE
ZINC13352877
   57    60     0     0     0
SMALL
USER_CHARGES
3-[[2-[[5-benzyl-4-(2,4-dimethylphenyl)-1,2,4-triazol-3-yl]sulfanyl]acetyl]amino]benzoic acid
@<TRIPOS>ATOM
      1 C1          6.0365   -1.5379   -0.7115 C.3       1 <0>        -0.1201
      2 C2          5.4035   -0.2290   -1.1080 C.ar      1 <0>        -0.0562
      3 C3          4.1477   -0.2172   -1.6871 C.ar      1 <0>        -0.1170
      4 C4          3.5627    0.9812   -2.0463 C.ar      1 <0>        -0.0808
      5 C5          4.2412    2.1740   -1.8356 C.ar      1 <0>         0.0867
      6 C6          5.5016    2.1590   -1.2546 C.ar      1 <0>        -0.0510
      7 C7          6.0796    0.9576   -0.8926 C.ar      1 <0>        -0.1136
      8 C8          6.2388    3.4520   -1.0186 C.3       1 <0>        -0.1211
      9 N1          3.6517    3.3922   -2.2038 N.pl3     1 <0>        -0.4095
     10 C9          2.8490    4.1899   -1.4321 C.2       1 <0>         0.1996
     11 N2          2.5229    5.2248   -2.1537 N.2       1 <0>        -0.2760
     12 N3          3.0546    5.1363   -3.3203 N.2       1 <0>        -0.2931
     13 C10         3.7561    4.0300   -3.4094 C.2       1 <0>         0.1512
     14 S1          4.6651    3.4756   -4.8133 S.3       1 <0>         0.0983
     15 C11         4.3236    4.8304   -5.9639 C.3       1 <0>        -0.1479
     16 C12         5.0205    4.5649   -7.2735 C.2       1 <0>         0.5240
     17 O1          5.6828    3.5588   -7.4150 O.2       1 <0>        -0.4926
     18 N4          4.9077    5.4456   -8.2875 N.am      1 <0>        -0.6610
     19 C13         5.6314    5.2487   -9.4692 C.ar      1 <0>         0.1117
     20 C14         6.1222    6.3417  -10.1738 C.ar      1 <0>        -0.1443
     21 C15         6.8417    6.1526  -11.3387 C.ar      1 <0>        -0.1239
     22 C16         7.0688    4.8777  -11.8160 C.ar      1 <0>        -0.0868
     23 C17         6.5755    3.7733  -11.1185 C.ar      1 <0>        -0.0984
     24 C18         5.8537    3.9642   -9.9396 C.ar      1 <0>        -0.0816
     25 C19         6.8165    2.4073  -11.6272 C.2       1 <0>         0.4891
     26 O2          6.3860    1.4480  -11.0190 O.co2     1 <0>        -0.6252
     27 C20         2.4265    3.9234   -0.0103 C.3       1 <0>         0.0096
     28 C21         1.1369    3.1437   -0.0072 C.ar      1 <0>        -0.0870
     29 C22         1.1648    1.7616   -0.0138 C.ar      1 <0>        -0.1110
     30 C23        -0.0182    1.0464   -0.0109 C.ar      1 <0>        -0.1200
     31 C24        -1.2290    1.7133   -0.0068 C.ar      1 <0>        -0.1169
     32 C25        -1.2569    3.0954    0.0051 C.ar      1 <0>        -0.1195
     33 C26        -0.0739    3.8105    0.0027 C.ar      1 <0>        -0.0994
     34 H1          5.7608   -1.7785    0.3152 H         1 <0>         0.0755
     35 H2          5.6858   -2.3272   -1.3764 H         1 <0>         0.0725
     36 H3          7.1207   -1.4546   -0.7866 H         1 <0>         0.0719
     37 H4          3.6220   -1.1456   -1.8545 H         1 <0>         0.1351
     38 H5          2.5799    0.9902   -2.4941 H         1 <0>         0.1304
     39 H6          7.0603    0.9453   -0.4405 H         1 <0>         0.1348
     40 H7          5.9882    3.8379   -0.0305 H         1 <0>         0.0757
     41 H8          7.3125    3.2741   -1.0775 H         1 <0>         0.0791
     42 H9          5.9488    4.1792   -1.7769 H         1 <0>         0.0662
     43 H10         3.2491    4.9022   -6.1321 H         1 <0>         0.1278
     44 H11         4.6886    5.7666   -5.5415 H         1 <0>         0.1279
     45 H12         4.3250    6.2159   -8.1984 H         1 <0>         0.4090
     46 H13         5.9440    7.3420   -9.8077 H         1 <0>         0.1177
     47 H14         7.2238    7.0057  -11.8797 H         1 <0>         0.1213
     48 H15         7.6276    4.7344  -12.7290 H         1 <0>         0.1322
     49 H16         5.4699    3.1139   -9.3955 H         1 <0>         0.1442
     50 H17         2.2797    4.8706    0.5087 H         1 <0>         0.1103
     51 H18         3.2006    3.3474    0.4968 H         1 <0>         0.0919
     52 H19         2.1108    1.2406   -0.0215 H         1 <0>         0.1207
     53 H20         0.0036   -0.0333   -0.0164 H         1 <0>         0.1224
     54 H21        -2.1532    1.1546   -0.0090 H         1 <0>         0.1218
     55 H22        -2.2029    3.6164    0.0125 H         1 <0>         0.1235
     56 H23        -0.0957    4.8903    0.0082 H         1 <0>         0.1267
     57 O3          7.5136    2.2256  -12.7655 O.co2     1 <0>        -0.7548
@<TRIPOS>BOND
     1    1    2 1
     2    1   34 1
     3    1   35 1
     4    1   36 1
     5    2    7 ar
     6    2    3 ar
     7    3    4 ar
     8    3   37 1
     9    4    5 ar
    10    4   38 1
    11    5    6 ar
    12    5    9 1
    13    6    7 ar
    14    6    8 1
    15    7   39 1
    16    8   40 1
    17    8   41 1
    18    8   42 1
    19    9   13 1
    20    9   10 1
    21   10   11 2
    22   10   27 1
    23   11   12 1
    24   12   13 2
    25   13   14 1
    26   14   15 1
    27   15   16 1
    28   15   43 1
    29   15   44 1
    30   16   17 2
    31   16   18 am
    32   18   19 1
    33   18   45 1
    34   19   24 ar
    35   19   20 ar
    36   20   21 ar
    37   20   46 1
    38   21   22 ar
    39   21   47 1
    40   22   23 ar
    41   22   48 1
    42   23   24 ar
    43   23   25 1
    44   24   49 1
    45   25   26 2
    46   25   57 1
    47   27   28 1
    48   27   50 1
    49   27   51 1
    50   28   33 ar
    51   28   29 ar
    52   29   30 ar
    53   29   52 1
    54   30   31 ar
    55   30   53 1
    56   31   32 ar
    57   31   54 1
    58   32   33 ar
    59   32   55 1
    60   33   56 1
@<TRIPOS>MOLECULE
ZINC32971158
   59    62     0     0     0
SMALL
USER_CHARGES
3-[(4-fluorophenyl)sulfonylamino]-4-[(3S)-3-methyl-4-(m-tolyl)piperazin-1-yl]benzoic acid
@<TRIPOS>ATOM
      1 C1          2.4224   -0.1133    6.5390 C.3       1 <0>        -0.1177
      2 C2          2.9154   -0.5015    5.1688 C.ar      1 <0>        -0.0770
      3 C3          4.0741   -1.2450    5.0366 C.ar      1 <0>        -0.1276
      4 C4          4.5296   -1.6037    3.7814 C.ar      1 <0>        -0.1115
      5 C5          3.8281   -1.2207    2.6549 C.ar      1 <0>        -0.1025
      6 C6          2.6642   -0.4740    2.7841 C.ar      1 <0>         0.1040
      7 C7          2.2123   -0.1104    4.0466 C.ar      1 <0>        -0.1503
      8 N1          1.9526   -0.0845    1.6470 N.pl3     1 <0>        -0.5047
      9 C8          0.5586   -0.5448    1.7148 C.3       1 <0>         0.0629
     10 C9         -0.1637   -0.1683    0.4190 C.3       1 <0>         0.0617
     11 N2         -0.1015    1.2879    0.2319 N.pl3     1 <0>        -0.4948
     12 C10         1.2925    1.7483    0.1642 C.3       1 <0>         0.0629
     13 C11         2.0148    1.3718    1.4599 C.3       1 <0>         0.0916
     14 H1          1.5217    1.8358    2.3268 H         1 <0>         0.0538
     15 C12         3.4772    1.8137    1.3766 C.3       1 <0>        -0.1461
     16 C13        -0.8112    1.6763   -0.9021 C.ar      1 <0>         0.0571
     17 C14        -0.3948    1.2546   -2.1594 C.ar      1 <0>        -0.1404
     18 C15        -1.0966    1.6314   -3.2831 C.ar      1 <0>        -0.0817
     19 C16        -2.2240    2.4493   -3.1628 C.ar      1 <0>        -0.0799
     20 C17        -2.6414    2.8795   -1.8990 C.ar      1 <0>        -0.1413
     21 C18        -1.9375    2.4942   -0.7743 C.ar      1 <0>         0.1635
     22 N3         -2.3523    2.9224    0.4928 N.pl3     1 <0>        -1.0499
     23 S1         -3.9667    3.0822    0.8253 S.o2      1 <0>         2.6901
     24 O1         -4.0675    3.3966    2.2075 O.2       1 <0>        -0.9606
     25 O2         -4.5092    3.9182   -0.1876 O.2       1 <0>        -0.9371
     26 C19        -4.7016    1.4947    0.6151 C.ar      1 <0>        -0.6873
     27 C20        -5.2071    1.1253   -0.6174 C.ar      1 <0>         0.0209
     28 C21        -5.7794   -0.1214   -0.7847 C.ar      1 <0>        -0.1711
     29 C22        -5.8558   -0.9967    0.2853 C.ar      1 <0>         0.1541
     30 C23        -5.3538   -0.6237    1.5207 C.ar      1 <0>        -0.1807
     31 C24        -4.7772    0.6215    1.6843 C.ar      1 <0>         0.0111
     32 F1         -6.4192   -2.2140    0.1241 F         1 <0>        -0.1322
     33 C25        -2.9718    2.8571   -4.3656 C.2       1 <0>         0.4859
     34 O3         -3.9518    3.5677   -4.2598 O.co2     1 <0>        -0.6199
     35 O4         -2.5687    2.4419   -5.5826 O.co2     1 <0>        -0.7520
     36 H2          3.1075   -0.5119    7.3017 H         1 <0>         0.0646
     37 H3          1.4159   -0.5279    6.6976 H         1 <0>         0.0689
     38 H4          2.3839    0.9832    6.6178 H         1 <0>         0.0692
     39 H5          4.6241   -1.5464    5.9158 H         1 <0>         0.1192
     40 H6          5.4348   -2.1843    3.6817 H         1 <0>         0.1228
     41 H7          4.1841   -1.5018    1.6748 H         1 <0>         0.1262
     42 H8          1.3100    0.4740    4.1503 H         1 <0>         0.1192
     43 H9          0.5390   -1.6372    1.8426 H         1 <0>         0.0812
     44 H10         0.0557   -0.0667    2.5683 H         1 <0>         0.0477
     45 H11         0.3229   -0.6693   -0.4309 H         1 <0>         0.0503
     46 H12        -1.2149   -0.4866    0.4793 H         1 <0>         0.0827
     47 H13         1.7955    1.2703   -0.6893 H         1 <0>         0.0519
     48 H14         1.3121    2.8407    0.0365 H         1 <0>         0.0854
     49 H15         3.5234    2.9038    1.2366 H         1 <0>         0.0641
     50 H16         3.9634    1.3138    0.5259 H         1 <0>         0.0649
     51 H17         3.9961    1.5413    2.3074 H         1 <0>         0.0582
     52 H18         0.4786    0.6266   -2.2551 H         1 <0>         0.1186
     53 H19        -0.7733    1.2981   -4.2582 H         1 <0>         0.1335
     54 H20        -3.5117    3.5117   -1.8026 H         1 <0>         0.1686
     55 H21        -1.6058    3.1526    1.2673 H         1 <0>         0.4530
     56 H22        -5.1511    1.8098   -1.4510 H         1 <0>         0.1576
     57 H23        -6.1706   -0.4113   -1.7488 H         1 <0>         0.1481
     58 H24        -5.4125   -1.3058    2.3560 H         1 <0>         0.1430
     59 H25        -4.3853    0.9126    2.6476 H         1 <0>         0.1476
@<TRIPOS>BOND
     1    1    2 1
     2    1   36 1
     3    1   37 1
     4    1   38 1
     5    2    7 ar
     6    2    3 ar
     7    3    4 ar
     8    3   39 1
     9    4    5 ar
    10    4   40 1
    11    5    6 ar
    12    5   41 1
    13    6    7 ar
    14    6    8 1
    15    7   42 1
    16    8   13 1
    17    8    9 1
    18    9   10 1
    19    9   43 1
    20    9   44 1
    21   10   11 1
    22   10   45 1
    23   10   46 1
    24   11   12 1
    25   11   16 1
    26   12   13 1
    27   12   47 1
    28   12   48 1
    29   13   14 1
    30   13   15 1
    31   15   49 1
    32   15   50 1
    33   15   51 1
    34   16   21 ar
    35   16   17 ar
    36   17   18 ar
    37   17   52 1
    38   18   19 ar
    39   18   53 1
    40   19   20 ar
    41   19   33 1
    42   20   21 ar
    43   20   54 1
    44   21   22 1
    45   22   23 1
    46   22   55 1
    47   23   24 2
    48   23   25 2
    49   23   26 1
    50   26   31 ar
    51   26   27 ar
    52   27   28 ar
    53   27   56 1
    54   28   29 ar
    55   28   57 1
    56   29   30 ar
    57   29   32 1
    58   30   31 ar
    59   30   58 1
    60   31   59 1
    61   33   34 2
    62   33   35 1
@<TRIPOS>MOLECULE
ZINC36072039
   54    57     0     0     0
SMALL
USER_CHARGES

@<TRIPOS>ATOM
      1 C1         -0.2831    1.2330    0.3083 C.3       1 <0>        -0.1045
      2 C2         -0.1555   -0.2658    0.2174 C.2       1 <0>         0.2319
      3 C3         -1.2902   -1.0455    0.1233 C.2       1 <0>        -0.3770
      4 C4         -1.1108   -2.5446    0.0344 C.3       1 <0>         0.2713
      5 H1         -1.5809   -2.8846   -0.8884 H         1 <0>         0.0662
      6 N1          0.2834   -3.0617    0.0554 N.pl3     1 <0>        -0.5233
      7 C5          0.6817   -4.3820   -0.0141 C.2       1 <0>         0.2325
      8 C6          2.0076   -4.6395    0.0206 C.2       1 <0>        -0.3053
      9 S1          2.6979   -3.0022    0.1525 S.3       1 <0>         0.1131
     10 C7          1.2699   -2.1203    0.1540 C.2       1 <0>         0.3242
     11 N2          1.0446   -0.8248    0.2227 N.2       1 <0>        -0.5943
     12 C8         -0.3021   -5.4690   -0.1215 C.2       1 <0>        -0.4643
     13 C9          0.1031   -6.7522   -0.0637 C.2       1 <0>         0.5014
     14 O1          1.4259   -7.0436   -0.0155 O.3       1 <0>        -0.7016
     15 N3         -0.8317   -7.7737   -0.0534 N.pl3     1 <0>        -0.7524
     16 C10        -0.3977   -9.1621    0.1203 C.3       1 <0>         0.2192
     17 C11        -1.5828  -10.0811   -0.0273 C.2       1 <0>        -0.0149
     18 C12        -2.0072  -10.6394   -1.1752 C.2       1 <0>        -0.2009
     19 C13        -3.1406  -11.4218   -0.8557 C.2       1 <0>        -0.2170
     20 C14        -3.3411  -11.2948    0.4683 C.2       1 <0>        -0.0450
     21 O2         -2.3911  -10.4862    0.9658 O.3       1 <0>        -0.1722
     22 C15        -1.8543   -3.1700    1.1864 C.ar      1 <0>        -0.0583
     23 C16        -1.3342   -3.0973    2.4652 C.ar      1 <0>        -0.0693
     24 C17        -2.0156   -3.6707    3.5222 C.ar      1 <0>        -0.1069
     25 C18        -3.2183   -4.3175    3.3003 C.ar      1 <0>        -0.0305
     26 C19        -3.7383   -4.3899    2.0202 C.ar      1 <0>        -0.1076
     27 C20        -3.0588   -3.8112    0.9649 C.ar      1 <0>        -0.0855
     28 Cl1        -4.0744   -5.0384    4.6273 Cl        1 <0>        -0.0863
     29 C21        -2.5682   -0.4667    0.1112 C.2       1 <0>         0.6055
     30 O3         -3.2644   -0.5049    1.1116 O.2       1 <0>        -0.5357
     31 N4         -3.0265    0.1316   -1.0062 N.am      1 <0>        -0.6243
     32 C22        -4.3053    0.8459   -0.9829 C.3       1 <0>         0.0929
     33 C23        -2.2457    0.0676   -2.2441 C.3       1 <0>         0.0820
     34 H2          0.7096    1.6791    0.3706 H         1 <0>         0.0772
     35 H3         -0.7952    1.6085   -0.5775 H         1 <0>         0.0731
     36 H4         -0.8558    1.4956    1.1978 H         1 <0>         0.0729
     37 H5          2.5169   -5.5909   -0.0206 H         1 <0>         0.2352
     38 H6         -1.3498   -5.2387   -0.2468 H         1 <0>         0.0850
     39 H7         -1.7739   -7.5699   -0.1612 H         1 <0>         0.3873
     40 H8          0.3483   -9.4068   -0.6358 H         1 <0>         0.0882
     41 H9          0.0365   -9.2856    1.1124 H         1 <0>         0.0648
     42 H10        -1.5669  -10.5136   -2.1534 H         1 <0>         0.1478
     43 H11        -3.7322  -12.0085   -1.5429 H         1 <0>         0.1457
     44 H12        -4.1298  -11.7663    1.0358 H         1 <0>         0.1995
     45 H13        -0.3952   -2.5927    2.6383 H         1 <0>         0.1140
     46 H14        -1.6091   -3.6142    4.5212 H         1 <0>         0.1260
     47 H15        -4.6769   -4.8949    1.8463 H         1 <0>         0.1262
     48 H16        -3.4669   -3.8635   -0.0337 H         1 <0>         0.1200
     49 H17        -4.2570    1.6536   -0.2526 H         1 <0>         0.0558
     50 H18        -4.5080    1.2605   -1.9703 H         1 <0>         0.0689
     51 H19        -5.1024    0.1550   -0.7083 H         1 <0>         0.0569
     52 H20        -2.5994   -0.7635   -2.8542 H         1 <0>         0.0507
     53 H21        -2.3635    0.9998   -2.7966 H         1 <0>         0.0638
     54 H22        -1.1932   -0.0811   -2.0026 H         1 <0>         0.0778
@<TRIPOS>BOND
     1    1    2 1
     2    1   34 1
     3    1   35 1
     4    1   36 1
     5    2   11 1
     6    2    3 2
     7    3    4 1
     8    3   29 1
     9    4    5 1
    10    4    6 1
    11    4   22 1
    12    6   10 1
    13    6    7 1
    14    7    8 2
    15    7   12 1
    16    8    9 1
    17    8   37 1
    18    9   10 1
    19   10   11 2
    20   12   13 2
    21   12   38 1
    22   13   14 1
    23   13   15 1
    24   15   16 1
    25   15   39 1
    26   16   17 1
    27   16   40 1
    28   16   41 1
    29   17   21 1
    30   17   18 2
    31   18   19 1
    32   18   42 1
    33   19   20 2
    34   19   43 1
    35   20   21 1
    36   20   44 1
    37   22   27 ar
    38   22   23 ar
    39   23   24 ar
    40   23   45 1
    41   24   25 ar
    42   24   46 1
    43   25   26 ar
    44   25   28 1
    45   26   27 ar
    46   26   47 1
    47   27   48 1
    48   29   30 2
    49   29   31 am
    50   31   32 1
    51   31   33 1
    52   32   49 1
    53   32   50 1
    54   32   51 1
    55   33   52 1
    56   33   53 1
    57   33   54 1
@<TRIPOS>MOLECULE
ZINC58944018
   53    56     0     0     0
SMALL
USER_CHARGES

@<TRIPOS>ATOM
      1 C1         -0.0094    1.3729    0.0079 C.ar      1 <0>        -0.0656
      2 C2          1.1736    2.0872   -0.0016 C.ar      1 <0>        -0.1573
      3 C3          2.3856    1.4180   -0.0251 C.ar      1 <0>         0.1079
      4 C4          2.4107    0.0338   -0.0390 C.ar      1 <0>        -0.1584
      5 C5          1.2264   -0.6784   -0.0295 C.ar      1 <0>        -0.0656
      6 C6          0.0169   -0.0092   -0.0060 C.ar      1 <0>        -0.1246
      7 C7         -1.2738   -0.7870    0.0044 C.3       1 <0>         0.1414
      8 N1         -1.7113   -1.0255   -1.3733 N.am      1 <0>        -0.5244
      9 C8         -2.4961   -0.1210   -1.9394 C.2       1 <0>         0.5220
     10 O1         -2.8904    0.7634   -1.2096 O.2       1 <0>        -0.5031
     11 C9         -2.9583   -0.0457   -3.3537 C.3       1 <0>        -0.1236
     12 C10        -3.0314   -1.4213   -4.0192 C.3       1 <0>        -0.1016
     13 H1         -3.8292   -2.0088   -3.5648 H         1 <0>         0.1296
     14 S1         -1.4299   -2.2541   -3.7633 S.3       1 <0>        -0.0794
     15 C11        -1.2737   -2.1781   -2.0008 C.2       1 <0>         0.3922
     16 N2         -0.7663   -3.1769   -1.3180 N.2       1 <0>        -0.4664
     17 C12        -0.3414   -4.3057   -1.9685 C.ar      1 <0>         0.0720
     18 C13        -1.1289   -4.8751   -2.9707 C.ar      1 <0>        -0.0974
     19 C14        -0.6958   -6.0113   -3.6225 C.ar      1 <0>        -0.1380
     20 C15         0.5177   -6.5874   -3.2838 C.ar      1 <0>         0.1029
     21 C16         1.3032   -6.0269   -2.2896 C.ar      1 <0>        -0.1466
     22 C17         0.8832   -4.8873   -1.6353 C.ar      1 <0>        -0.0657
     23 F1          0.9366   -7.7002   -3.9251 F         1 <0>        -0.1364
     24 C18        -3.2936   -1.2606   -5.4945 C.2       1 <0>         0.5305
     25 O2         -2.8161   -0.3225   -6.0966 O.2       1 <0>        -0.4895
     26 N3         -4.0589   -2.1596   -6.1447 N.am      1 <0>        -0.6505
     27 C19        -4.3805   -1.9603   -7.4856 C.ar      1 <0>         0.1123
     28 C20        -3.4534   -1.3735   -8.3420 C.ar      1 <0>        -0.1290
     29 C21        -3.7661   -1.1757   -9.6624 C.ar      1 <0>        -0.0708
     30 C22        -5.0191   -1.5650  -10.1485 C.ar      1 <0>        -0.1347
     31 C23        -5.9482   -2.1549   -9.2844 C.ar      1 <0>        -0.0710
     32 C24        -5.6261   -2.3538   -7.9665 C.ar      1 <0>        -0.1518
     33 C25        -5.3592   -1.3540  -11.5653 C.2       1 <0>         0.5183
     34 O3         -4.5458   -0.8377  -12.3193 O.co2     1 <0>        -0.6856
     35 O4         -6.4552   -1.6949  -11.9886 O.co2     1 <0>        -0.6874
     36 F2          3.5427    2.1153   -0.0348 F         1 <0>        -0.1385
     37 H2         -0.9548    1.8946    0.0307 H         1 <0>         0.1396
     38 H3          1.1528    3.1669    0.0089 H         1 <0>         0.1374
     39 H4          3.3554   -0.4892   -0.0577 H         1 <0>         0.1366
     40 H5          1.2457   -1.7582   -0.0407 H         1 <0>         0.1358
     41 H6         -1.1186   -1.7418    0.5068 H         1 <0>         0.1140
     42 H7         -2.0370   -0.2173    0.5345 H         1 <0>         0.1111
     43 H8         -3.9478    0.4108   -3.3776 H         1 <0>         0.1326
     44 H9         -2.2684    0.5826   -3.9172 H         1 <0>         0.1395
     45 H10        -2.0754   -4.4272   -3.2351 H         1 <0>         0.1446
     46 H11        -1.3042   -6.4526   -4.3981 H         1 <0>         0.1421
     47 H12         2.2482   -6.4805   -2.0294 H         1 <0>         0.1413
     48 H13         1.4983   -4.4487   -0.8636 H         1 <0>         0.1385
     49 H14        -4.3856   -2.9453   -5.6791 H         1 <0>         0.4090
     50 H15        -2.4864   -1.0733   -7.9661 H         1 <0>         0.1306
     51 H16        -3.0465   -0.7197  -10.3261 H         1 <0>         0.1310
     52 H17        -6.9165   -2.4564   -9.6558 H         1 <0>         0.1319
     53 H18        -6.3411   -2.8128   -7.2999 H         1 <0>         0.1182
@<TRIPOS>BOND
     1    1    6 ar
     2    1    2 ar
     3    1   37 1
     4    2    3 ar
     5    2   38 1
     6    3    4 ar
     7    3   36 1
     8    4    5 ar
     9    4   39 1
    10    5    6 ar
    11    5   40 1
    12    6    7 1
    13    7    8 1
    14    7   41 1
    15    7   42 1
    16    8   15 1
    17    8    9 am
    18    9   10 2
    19    9   11 1
    20   11   12 1
    21   11   43 1
    22   11   44 1
    23   12   13 1
    24   12   14 1
    25   12   24 1
    26   14   15 1
    27   15   16 2
    28   16   17 1
    29   17   22 ar
    30   17   18 ar
    31   18   19 ar
    32   18   45 1
    33   19   20 ar
    34   19   46 1
    35   20   21 ar
    36   20   23 1
    37   21   22 ar
    38   21   47 1
    39   22   48 1
    40   24   25 2
    41   24   26 am
    42   26   27 1
    43   26   49 1
    44   27   32 ar
    45   27   28 ar
    46   28   29 ar
    47   28   50 1
    48   29   30 ar
    49   29   51 1
    50   30   31 ar
    51   30   33 1
    52   31   32 ar
    53   31   52 1
    54   32   53 1
    55   33   34 2
    56   33   35 1
@<TRIPOS>MOLECULE
ZINC13016794
   56    59     0     0     0
SMALL
USER_CHARGES
2-[(1R)-2-[(2,5-dimethylphenyl)amino]-1-methyl-2-oxo-ethyl]sulfanyl-3-(4-fluorophenyl)-4-oxo-quinazoline-7-carboxylic acid
@<TRIPOS>ATOM
      1 C1          1.2037   -3.9193    0.1787 C.3       1 <0>        -0.1131
      2 C2          0.5297   -2.5743    0.0910 C.ar      1 <0>        -0.0716
      3 C3         -0.0719   -2.0289    1.2105 C.ar      1 <0>        -0.1359
      4 C4         -0.6917   -0.7953    1.1341 C.ar      1 <0>        -0.0964
      5 C5         -0.7118   -0.1037   -0.0615 C.ar      1 <0>        -0.1204
      6 C6         -0.1129   -0.6508   -1.1884 C.ar      1 <0>         0.1525
      7 C7          0.5139   -1.8876   -1.1069 C.ar      1 <0>        -0.1276
      8 N1         -0.1365    0.0447   -2.4024 N.am      1 <0>        -0.6607
      9 C8         -0.0249   -0.6265   -3.5658 C.2       1 <0>         0.5381
     10 O1         -0.0111   -1.8393   -3.5673 O.2       1 <0>        -0.5023
     11 C9          0.0826    0.1298   -4.8648 C.3       1 <0>        -0.1153
     12 H1         -0.5243    1.0336   -4.8103 H         1 <0>         0.1300
     13 C10         1.5434    0.5107   -5.1137 C.3       1 <0>        -0.1461
     14 S1         -0.5085   -0.9130   -6.2209 S.3       1 <0>         0.0656
     15 C11        -0.4179    0.2368   -7.5529 C.2       1 <0>         0.3372
     16 N2          0.0014    1.4523   -7.3018 N.2       1 <0>        -0.4993
     17 C12         0.0999    2.3842   -8.2789 C.ar      1 <0>         0.1332
     18 C13         0.5530    3.6786   -8.0093 C.ar      1 <0>        -0.0699
     19 C14         0.6332    4.6031   -9.0432 C.ar      1 <0>        -0.0646
     20 C15         0.2645    4.2454  -10.3467 C.ar      1 <0>        -0.0837
     21 C16        -0.1799    2.9842  -10.6219 C.ar      1 <0>        -0.0612
     22 C17        -0.2685    2.0400   -9.5993 C.ar      1 <0>        -0.1913
     23 C18        -0.7411    0.6700   -9.8523 C.2       1 <0>         0.5580
     24 O2         -1.0723    0.3131  -10.9678 O.2       1 <0>        -0.5006
     25 N3         -0.7939   -0.1790   -8.8002 N.am      1 <0>        -0.4851
     26 C19        -1.2377   -1.4946   -8.9900 C.ar      1 <0>         0.0951
     27 C20        -0.4290   -2.5612   -8.6210 C.ar      1 <0>        -0.0772
     28 C21        -0.8705   -3.8570   -8.8036 C.ar      1 <0>        -0.1365
     29 C22        -2.1143   -4.0930   -9.3649 C.ar      1 <0>         0.1093
     30 C23        -2.9201   -3.0306   -9.7388 C.ar      1 <0>        -0.1409
     31 C24        -2.4845   -1.7333   -9.5526 C.ar      1 <0>        -0.0583
     32 F1         -2.5424   -5.3613   -9.5474 F         1 <0>        -0.1350
     33 C25         1.1118    5.9752   -8.7658 C.2       1 <0>         0.4874
     34 O3          1.4329    6.2899   -7.6377 O.co2     1 <0>        -0.6204
     35 C26        -1.3885    1.2403   -0.1441 C.3       1 <0>        -0.1171
     36 H2          0.4820   -4.7031   -0.0515 H         1 <0>         0.0711
     37 H3          2.0258   -3.9611   -0.5359 H         1 <0>         0.0666
     38 H4          1.5909   -4.0667    1.1869 H         1 <0>         0.0658
     39 H5         -0.0579   -2.5678    2.1463 H         1 <0>         0.1215
     40 H6         -1.1610   -0.3722    2.0100 H         1 <0>         0.1255
     41 H7          0.9845   -2.3137   -1.9806 H         1 <0>         0.1459
     42 H8         -0.2332    1.0098   -2.4066 H         1 <0>         0.4157
     43 H9          1.8994    1.1387   -4.2970 H         1 <0>         0.0727
     44 H10         2.1503   -0.3931   -5.1682 H         1 <0>         0.0686
     45 H11         1.6212    1.0578   -6.0532 H         1 <0>         0.1007
     46 H12         0.8388    3.9577   -7.0059 H         1 <0>         0.1462
     47 H13         0.3321    4.9741  -11.1409 H         1 <0>         0.1448
     48 H14        -0.4619    2.7180  -11.6298 H         1 <0>         0.1353
     49 H15         0.5431   -2.3776   -8.1877 H         1 <0>         0.1465
     50 H16        -0.2436   -4.6868   -8.5126 H         1 <0>         0.1471
     51 H17        -3.8897   -3.2166  -10.1767 H         1 <0>         0.1450
     52 H18        -3.1130   -0.9051   -9.8447 H         1 <0>         0.1387
     53 H19        -0.6679    2.0247    0.0874 H         1 <0>         0.0730
     54 H20        -1.7774    1.3899   -1.1513 H         1 <0>         0.0634
     55 H21        -2.2096    1.2783    0.5718 H         1 <0>         0.0720
     56 O4          1.1915    6.8754   -9.7645 O.co2     1 <0>        -0.7421
@<TRIPOS>BOND
     1    1    2 1
     2    1   36 1
     3    1   37 1
     4    1   38 1
     5    2    7 ar
     6    2    3 ar
     7    3    4 ar
     8    3   39 1
     9    4    5 ar
    10    4   40 1
    11    5    6 ar
    12    5   35 1
    13    6    7 ar
    14    6    8 1
    15    7   41 1
    16    8    9 am
    17    8   42 1
    18    9   10 2
    19    9   11 1
    20   11   12 1
    21   11   13 1
    22   11   14 1
    23   13   43 1
    24   13   44 1
    25   13   45 1
    26   14   15 1
    27   15   25 1
    28   15   16 2
    29   16   17 1
    30   17   22 ar
    31   17   18 ar
    32   18   19 ar
    33   18   46 1
    34   19   20 ar
    35   19   33 1
    36   20   21 ar
    37   20   47 1
    38   21   22 ar
    39   21   48 1
    40   22   23 1
    41   23   24 2
    42   23   25 am
    43   25   26 1
    44   26   31 ar
    45   26   27 ar
    46   27   28 ar
    47   27   49 1
    48   28   29 ar
    49   28   50 1
    50   29   30 ar
    51   29   32 1
    52   30   31 ar
    53   30   51 1
    54   31   52 1
    55   33   34 2
    56   33   56 1
    57   35   53 1
    58   35   54 1
    59   35   55 1
@<TRIPOS>MOLECULE
ZINC13266642
   50    53     0     0     0
SMALL
USER_CHARGES
3-(2-fluorophenyl)-4-oxo-2-[2-oxo-2-[[(1R)-1-(2-thienyl)ethyl]amino]ethyl]sulfanyl-quinazoline-7-carboxylic acid
@<TRIPOS>ATOM
      1 C1          2.6325   -2.0868    1.3869 C.3       1 <0>        -0.1610
      2 C2          2.5646   -1.5139   -0.0301 C.3       1 <0>         0.2325
      3 H1          3.5738   -1.3136   -0.3899 H         1 <0>         0.1114
      4 C3          1.7727   -0.2318   -0.0161 C.2       1 <0>        -0.1618
      5 C4          2.2199    1.0478   -0.0135 C.2       1 <0>        -0.1427
      6 C5          1.3000    2.0794    0.0008 C.2       1 <0>        -0.1586
      7 C6         -0.0221    1.7810    0.0118 C.2       1 <0>        -0.1670
      8 S1          0.0021   -0.0041    0.0020 S.3       1 <0>         0.0500
      9 N1          1.9128   -2.4807   -0.9171 N.am      1 <0>        -0.7206
     10 C7          2.6352   -3.4646   -1.4885 C.2       1 <0>         0.5405
     11 O1          3.8249   -3.5495   -1.2685 O.2       1 <0>        -0.5225
     12 C8          1.9648   -4.4591   -2.4009 C.3       1 <0>        -0.1508
     13 S2          3.1909   -5.6455   -3.0052 S.3       1 <0>         0.0684
     14 C9          2.1638   -6.6586   -4.0167 C.2       1 <0>         0.3393
     15 N2          0.8881   -6.3714   -4.0975 N.2       1 <0>        -0.5065
     16 C10         0.0435   -7.1044   -4.8606 C.ar      1 <0>         0.1368
     17 C11        -1.3161   -6.7924   -4.9495 C.ar      1 <0>        -0.0710
     18 C12        -2.1462   -7.5767   -5.7405 C.ar      1 <0>        -0.0654
     19 C13        -1.6295   -8.6718   -6.4452 C.ar      1 <0>        -0.0851
     20 C14        -0.3033   -8.9862   -6.3660 C.ar      1 <0>        -0.0613
     21 C15         0.5484   -8.2128   -5.5776 C.ar      1 <0>        -0.1919
     22 C16         1.9834   -8.5163   -5.4642 C.2       1 <0>         0.5602
     23 O2          2.4776   -9.4576   -6.0570 O.2       1 <0>        -0.5025
     24 N3          2.7338   -7.7117   -4.6769 N.am      1 <0>        -0.4882
     25 C17         4.1061   -7.9597   -4.5366 C.ar      1 <0>         0.0669
     26 C18         4.5628   -8.7900   -3.5223 C.ar      1 <0>        -0.0613
     27 C19         5.9154   -9.0372   -3.3899 C.ar      1 <0>        -0.1219
     28 C20         6.8164   -8.4498   -4.2591 C.ar      1 <0>        -0.0723
     29 C21         6.3671   -7.6175   -5.2675 C.ar      1 <0>        -0.1489
     30 C22         5.0136   -7.3700   -5.4095 C.ar      1 <0>         0.1289
     31 F1          4.5743   -6.5564   -6.3945 F         1 <0>        -0.1263
     32 C23        -3.5864   -7.2529   -5.8398 C.2       1 <0>         0.4883
     33 O3         -4.0388   -6.3044   -5.2311 O.co2     1 <0>        -0.6209
     34 H2          3.2053   -3.0142    1.3768 H         1 <0>         0.0726
     35 H3          3.1175   -1.3675    2.0468 H         1 <0>         0.0719
     36 H4          1.6233   -2.2870    1.7467 H         1 <0>         0.0632
     37 H5          3.2792    1.2581   -0.0221 H         1 <0>         0.1350
     38 H6          1.6298    3.1078    0.0028 H         1 <0>         0.1356
     39 H7         -0.8702    2.4497    0.0197 H         1 <0>         0.1875
     40 H8          0.9613   -2.4128   -1.0930 H         1 <0>         0.4063
     41 H9          1.1865   -4.9889   -1.8516 H         1 <0>         0.1339
     42 H10         1.5197   -3.9342   -3.2462 H         1 <0>         0.1331
     43 H11        -1.7177   -5.9486   -4.4082 H         1 <0>         0.1458
     44 H12        -2.2862   -9.2726   -7.0570 H         1 <0>         0.1446
     45 H13         0.0856   -9.8323   -6.9130 H         1 <0>         0.1347
     46 H14         3.8608   -9.2459   -2.8399 H         1 <0>         0.1385
     47 H15         6.2702   -9.6866   -2.6032 H         1 <0>         0.1401
     48 H16         7.8737   -8.6415   -4.1497 H         1 <0>         0.1405
     49 H17         7.0734   -7.1600   -5.9444 H         1 <0>         0.1450
     50 O4         -4.3956   -8.0100   -6.6052 O.co2     1 <0>        -0.7429
@<TRIPOS>BOND
     1    1    2 1
     2    1   34 1
     3    1   35 1
     4    1   36 1
     5    2    3 1
     6    2    4 1
     7    2    9 1
     8    4    8 1
     9    4    5 2
    10    5    6 1
    11    5   37 1
    12    6    7 2
    13    6   38 1
    14    7    8 1
    15    7   39 1
    16    9   10 am
    17    9   40 1
    18   10   11 2
    19   10   12 1
    20   12   13 1
    21   12   41 1
    22   12   42 1
    23   13   14 1
    24   14   24 1
    25   14   15 2
    26   15   16 1
    27   16   21 ar
    28   16   17 ar
    29   17   18 ar
    30   17   43 1
    31   18   19 ar
    32   18   32 1
    33   19   20 ar
    34   19   44 1
    35   20   21 ar
    36   20   45 1
    37   21   22 1
    38   22   23 2
    39   22   24 am
    40   24   25 1
    41   25   30 ar
    42   25   26 ar
    43   26   27 ar
    44   26   46 1
    45   27   28 ar
    46   27   47 1
    47   28   29 ar
    48   28   48 1
    49   29   30 ar
    50   29   49 1
    51   30   31 1
    52   32   33 2
    53   32   50 1
@<TRIPOS>MOLECULE
ZINC32971178
   62    65     0     0     0
SMALL
USER_CHARGES
3-[(5-fluoro-2-methyl-phenyl)sulfonylamino]-4-[(3S)-3-methyl-4-(m-tolyl)piperazin-1-yl]benzoic acid
@<TRIPOS>ATOM
      1 C1          1.8385    1.5174   -4.8264 C.3       1 <0>        -0.1177
      2 C2          1.4290    0.3259   -3.9995 C.ar      1 <0>        -0.0770
      3 C3          1.7796   -0.9493   -4.4044 C.ar      1 <0>        -0.1268
      4 C4          1.4063   -2.0452   -3.6485 C.ar      1 <0>        -0.1114
      5 C5          0.6820   -1.8696   -2.4855 C.ar      1 <0>        -0.1016
      6 C6          0.3283   -0.5904   -2.0760 C.ar      1 <0>         0.1030
      7 C7          0.7001    0.5081   -2.8410 C.ar      1 <0>        -0.1497
      8 N1         -0.4044   -0.4093   -0.9008 N.pl3     1 <0>        -0.5043
      9 C8          0.3273    0.4386    0.0507 C.3       1 <0>         0.0613
     10 C9         -0.4712    0.5471    1.3519 C.3       1 <0>         0.0478
     11 N2         -1.7985    1.1082    1.0637 N.pl3     1 <0>        -0.4852
     12 C10        -2.5307    0.2603    0.1119 C.3       1 <0>         0.0585
     13 C11        -1.7317    0.1518   -1.1890 C.3       1 <0>         0.0901
     14 H1         -1.5781    1.1463   -1.6332 H         1 <0>         0.0548
     15 C12        -2.4712   -0.7629   -2.1674 C.3       1 <0>        -0.1457
     16 C13        -2.5294    1.2888    2.2358 C.ar      1 <0>         0.0745
     17 C14        -3.6701    0.5288    2.4664 C.ar      1 <0>        -0.1592
     18 C15        -4.3959    0.7038    3.6237 C.ar      1 <0>        -0.0658
     19 C16        -3.9865    1.6471    4.5708 C.ar      1 <0>        -0.0955
     20 C17        -2.8389    2.4131    4.3409 C.ar      1 <0>        -0.1237
     21 C18        -2.1112    2.2301    3.1808 C.ar      1 <0>         0.1187
     22 N3         -0.9585    2.9908    2.9494 N.pl3     1 <0>        -1.0572
     23 S1         -0.0076    3.4610    4.2210 S.o2      1 <0>         2.6904
     24 O1          1.1220    4.1177    3.6624 O.2       1 <0>        -0.9541
     25 O2         -0.8678    4.0911    5.1602 O.2       1 <0>        -0.9287
     26 C19         0.5927    1.9950    4.9926 C.ar      1 <0>        -0.6435
     27 C20         0.0331    0.7706    4.6792 C.ar      1 <0>        -0.0642
     28 C21         0.5049   -0.3810    5.2856 C.ar      1 <0>         0.0811
     29 C22         1.5372   -0.3048    6.2055 C.ar      1 <0>        -0.0984
     30 C23         2.0951    0.9203    6.5171 C.ar      1 <0>        -0.1092
     31 C24         1.6268    2.0692    5.9067 C.ar      1 <0>         0.0093
     32 C25         2.2402    3.4040    6.2429 C.3       1 <0>        -0.1685
     33 F1         -0.0410   -1.5784    4.9798 F         1 <0>        -0.1321
     34 C26        -4.7631    1.8346    5.8094 C.2       1 <0>         0.4876
     35 O3         -4.4064    2.6548    6.6320 O.co2     1 <0>        -0.6205
     36 O4         -5.8688    1.0963    6.0296 O.co2     1 <0>        -0.7538
     37 H2          2.4076    1.1766   -5.7039 H         1 <0>         0.0648
     38 H3          2.4662    2.1866   -4.2196 H         1 <0>         0.0693
     39 H4          0.9406    2.0587   -5.1593 H         1 <0>         0.0689
     40 H5          2.3465   -1.0893   -5.3129 H         1 <0>         0.1195
     41 H6          1.6817   -3.0395   -3.9675 H         1 <0>         0.1231
     42 H7          0.3914   -2.7259   -1.8951 H         1 <0>         0.1267
     43 H8          0.4229    1.5038   -2.5277 H         1 <0>         0.1191
     44 H9          1.3106   -0.0082    0.2590 H         1 <0>         0.0847
     45 H10         0.4641    1.4409   -0.3813 H         1 <0>         0.0503
     46 H11        -0.5834   -0.4523    1.7976 H         1 <0>         0.0556
     47 H12         0.0611    1.2045    2.0551 H         1 <0>         0.0849
     48 H13        -2.6679   -0.7419    0.5440 H         1 <0>         0.0593
     49 H14        -3.5139    0.7075   -0.0965 H         1 <0>         0.0920
     50 H15        -3.4646   -0.3426   -2.3829 H         1 <0>         0.0649
     51 H16        -2.5847   -1.7619   -1.7211 H         1 <0>         0.0659
     52 H17        -1.8960   -0.8419   -3.1017 H         1 <0>         0.0589
     53 H18        -3.9878   -0.2010    1.7364 H         1 <0>         0.1284
     54 H19        -5.2818    0.1117    3.7999 H         1 <0>         0.1364
     55 H20        -2.5202    3.1429    5.0704 H         1 <0>         0.1711
     56 H21        -0.6847    3.2760    1.9229 H         1 <0>         0.4547
     57 H22        -0.7717    0.7123    3.9614 H         1 <0>         0.1516
     58 H23         1.9059   -1.2025    6.6794 H         1 <0>         0.1439
     59 H24         2.9002    0.9800    7.2345 H         1 <0>         0.1436
     60 H25         3.0417    3.2632    6.9830 H         1 <0>         0.0888
     61 H26         1.4684    4.0676    6.6600 H         1 <0>         0.0872
     62 H27         2.6583    3.8555    5.3311 H         1 <0>         0.1029
@<TRIPOS>BOND
     1    1    2 1
     2    1   37 1
     3    1   38 1
     4    1   39 1
     5    2    7 ar
     6    2    3 ar
     7    3    4 ar
     8    3   40 1
     9    4    5 ar
    10    4   41 1
    11    5    6 ar
    12    5   42 1
    13    6    7 ar
    14    6    8 1
    15    7   43 1
    16    8   13 1
    17    8    9 1
    18    9   10 1
    19    9   44 1
    20    9   45 1
    21   10   11 1
    22   10   46 1
    23   10   47 1
    24   11   12 1
    25   11   16 1
    26   12   13 1
    27   12   48 1
    28   12   49 1
    29   13   14 1
    30   13   15 1
    31   15   50 1
    32   15   51 1
    33   15   52 1
    34   16   21 ar
    35   16   17 ar
    36   17   18 ar
    37   17   53 1
    38   18   19 ar
    39   18   54 1
    40   19   20 ar
    41   19   34 1
    42   20   21 ar
    43   20   55 1
    44   21   22 1
    45   22   23 1
    46   22   56 1
    47   23   24 2
    48   23   25 2
    49   23   26 1
    50   26   31 ar
    51   26   27 ar
    52   27   28 ar
    53   27   57 1
    54   28   29 ar
    55   28   33 1
    56   29   30 ar
    57   29   58 1
    58   30   31 ar
    59   30   59 1
    60   31   32 1
    61   32   60 1
    62   32   61 1
    63   32   62 1
    64   34   35 2
    65   34   36 1
@<TRIPOS>MOLECULE
ZINC36053266
   60    63     0     0     0
SMALL
USER_CHARGES

@<TRIPOS>ATOM
      1 C1          4.3565   -1.9533   -1.1416 C.3       1 <0>        -0.1051
      2 C2          3.4291   -1.2727   -0.1680 C.ar      1 <0>        -0.0991
      3 C3          3.3377    0.1067   -0.1493 C.ar      1 <0>        -0.1181
      4 C4          2.4871    0.7308    0.7436 C.ar      1 <0>        -0.1226
      5 C5          1.7274   -0.0242    1.6177 C.ar      1 <0>        -0.0579
      6 C6          1.8180   -1.4033    1.5984 C.ar      1 <0>        -0.0720
      7 C7          2.6657   -2.0278    0.7023 C.ar      1 <0>        -0.0724
      8 C8          0.9902   -2.2263    2.5515 C.3       1 <0>         0.2624
      9 H1          0.9825   -3.2525    2.1843 H         1 <0>         0.0724
     10 C9          1.6827   -2.2181    3.8960 C.2       1 <0>        -0.3874
     11 C10         0.9757   -1.7384    4.9819 C.2       1 <0>         0.3008
     12 N1         -0.2655   -1.3042    4.8351 N.2       1 <0>        -0.5968
     13 C11        -0.9247   -1.2843    3.6949 C.2       1 <0>         0.3244
     14 N2         -0.4050   -1.7133    2.5065 N.pl3     1 <0>        -0.5110
     15 C12        -1.2236   -1.6276    1.3980 C.2       1 <0>         0.2371
     16 C13        -2.4669   -1.1283    1.5738 C.2       1 <0>        -0.3059
     17 S1         -2.4800   -0.7778    3.3188 S.3       1 <0>         0.1446
     18 C14        -0.7590   -2.0637    0.0733 C.2       1 <0>        -0.4617
     19 C15        -1.5067   -1.8134   -1.0187 C.2       1 <0>         0.5035
     20 O1         -2.6094   -1.0316   -0.9202 O.3       1 <0>        -0.7027
     21 N3         -1.1489   -2.3550   -2.2418 N.pl3     1 <0>        -0.7518
     22 C16        -1.9622   -2.0828   -3.4295 C.3       1 <0>         0.2189
     23 C17        -1.3617   -2.7835   -4.6209 C.2       1 <0>        -0.0146
     24 C18        -1.6584   -4.0291   -5.0329 C.2       1 <0>        -0.2011
     25 C19        -0.8688   -4.2806   -6.1784 C.2       1 <0>        -0.2165
     26 C20        -0.1368   -3.1736   -6.3979 C.2       1 <0>        -0.0455
     27 O2         -0.4438   -2.2680   -5.4548 O.3       1 <0>        -0.1724
     28 C21         1.6224   -1.7100    6.3428 C.3       1 <0>        -0.1069
     29 C22         2.9964   -2.6818    4.0359 C.2       1 <0>         0.5380
     30 O3          3.5745   -2.5623    5.1021 O.2       1 <0>        -0.5484
     31 O4          3.6234   -3.2618    2.9886 O.3       1 <0>        -0.3490
     32 C23         4.9187   -3.8136    3.2325 C.3       1 <0>         0.0961
     33 C24         5.5034   -4.3146    1.9370 C.2       1 <0>        -0.1464
     34 C25         6.7496   -4.0472    1.6341 C.2       1 <0>        -0.1795
     35 C26         0.8007    0.6563    2.5919 C.3       1 <0>        -0.1256
     36 H2          3.8239   -2.1538   -2.0712 H         1 <0>         0.0634
     37 H3          5.2096   -1.3057   -1.3440 H         1 <0>         0.0583
     38 H4          4.7068   -2.8926   -0.7137 H         1 <0>         0.0615
     39 H5          3.9312    0.6965   -0.8321 H         1 <0>         0.1121
     40 H6          2.4163    1.8084    0.7587 H         1 <0>         0.1128
     41 H7          2.7337   -3.1055    0.6846 H         1 <0>         0.1171
     42 H8         -3.2499   -0.9807    0.8448 H         1 <0>         0.2303
     43 H9          0.1820   -2.5847   -0.0244 H         1 <0>         0.0873
     44 H10        -0.3597   -2.9145   -2.3122 H         1 <0>         0.3877
     45 H11        -2.9764   -2.4474   -3.2667 H         1 <0>         0.0848
     46 H12        -1.9875   -1.0089   -3.6142 H         1 <0>         0.0679
     47 H13        -2.3639   -4.7072   -4.5759 H         1 <0>         0.1481
     48 H14        -0.8556   -5.1877   -6.7645 H         1 <0>         0.1459
     49 H15         0.5741   -3.0351   -7.1990 H         1 <0>         0.1995
     50 H16         2.2212   -0.8045    6.4416 H         1 <0>         0.0814
     51 H17         0.8504   -1.7209    7.1122 H         1 <0>         0.0647
     52 H18         2.2634   -2.5839    6.4588 H         1 <0>         0.1021
     53 H19         5.5683   -3.0449    3.6510 H         1 <0>         0.0665
     54 H20         4.8344   -4.6411    3.9370 H         1 <0>         0.0680
     55 H21         4.8951   -4.8940    1.2583 H         1 <0>         0.1166
     56 H22         7.1686   -4.4062    0.7057 H         1 <0>         0.1039
     57 H23         7.3579   -3.4678    2.3128 H         1 <0>         0.0969
     58 H24        -0.2115    0.6614    2.1876 H         1 <0>         0.0696
     59 H25         0.8107    0.1179    3.5396 H         1 <0>         0.0705
     60 H26         1.1327    1.6820    2.7533 H         1 <0>         0.0552
@<TRIPOS>BOND
     1    1    2 1
     2    1   36 1
     3    1   37 1
     4    1   38 1
     5    2    7 ar
     6    2    3 ar
     7    3    4 ar
     8    3   39 1
     9    4    5 ar
    10    4   40 1
    11    5    6 ar
    12    5   35 1
    13    6    7 ar
    14    6    8 1
    15    7   41 1
    16    8    9 1
    17    8   14 1
    18    8   10 1
    19   10   11 2
    20   10   29 1
    21   11   12 1
    22   11   28 1
    23   12   13 2
    24   13   17 1
    25   13   14 1
    26   14   15 1
    27   15   16 2
    28   15   18 1
    29   16   17 1
    30   16   42 1
    31   18   19 2
    32   18   43 1
    33   19   20 1
    34   19   21 1
    35   21   22 1
    36   21   44 1
    37   22   23 1
    38   22   45 1
    39   22   46 1
    40   23   27 1
    41   23   24 2
    42   24   25 1
    43   24   47 1
    44   25   26 2
    45   25   48 1
    46   26   27 1
    47   26   49 1
    48   28   50 1
    49   28   51 1
    50   28   52 1
    51   29   30 2
    52   29   31 1
    53   31   32 1
    54   32   33 1
    55   32   53 1
    56   32   54 1
    57   33   34 2
    58   33   55 1
    59   34   56 1
    60   34   57 1
    61   35   58 1
    62   35   59 1
    63   35   60 1
@<TRIPOS>MOLECULE
ZINC40400550
   55    58     0     0     0
SMALL
USER_CHARGES

@<TRIPOS>ATOM
      1 C1          0.1756    1.4374   -0.1288 C.3       1 <0>        -0.1500
      2 C2          0.1182   -0.0844   -0.2766 C.3       1 <0>         0.0663
      3 O1         -1.2341   -0.5255   -0.1401 O.3       1 <0>        -0.3539
      4 C3         -1.4597   -1.8538   -0.2455 C.2       1 <0>         0.5358
      5 O2         -0.5302   -2.6156   -0.4482 O.2       1 <0>        -0.5480
      6 C4         -2.7613   -2.3548   -0.1219 C.2       1 <0>        -0.3930
      7 C5         -3.0408   -3.6849   -0.3705 C.2       1 <0>         0.3038
      8 N1         -4.2755   -4.1445   -0.2497 N.2       1 <0>        -0.5957
      9 C6         -5.3164   -3.4186    0.1032 C.2       1 <0>         0.3203
     10 N2         -5.2529   -2.0842    0.3925 N.pl3     1 <0>        -0.5134
     11 C7         -3.9069   -1.4594    0.2943 C.3       1 <0>         0.2602
     12 H1         -3.6612   -1.0297    1.2654 H         1 <0>         0.0748
     13 C8         -3.9963   -0.3289   -0.6982 C.ar      1 <0>        -0.0390
     14 C9         -4.4858   -0.5630   -1.9700 C.ar      1 <0>        -0.1022
     15 C10        -4.5685    0.4729   -2.8814 C.ar      1 <0>        -0.0942
     16 C11        -4.1613    1.7440   -2.5224 C.ar      1 <0>        -0.1561
     17 C12        -3.6710    1.9796   -1.2494 C.ar      1 <0>         0.0912
     18 C13        -3.5944    0.9422   -0.3352 C.ar      1 <0>        -0.1052
     19 F1         -3.2723    3.2216   -0.8976 F         1 <0>        -0.1463
     20 C14        -6.4337   -1.4629    0.7476 C.2       1 <0>         0.2300
     21 C15        -7.5538   -2.2179    0.7814 C.2       1 <0>        -0.3028
     22 S1         -6.9335   -3.8193    0.3068 S.3       1 <0>         0.1441
     23 C16        -6.4708   -0.0309    1.0777 C.2       1 <0>        -0.4656
     24 C17        -7.6515    0.5798    1.2943 C.2       1 <0>         0.5052
     25 O3         -8.7956   -0.1462    1.3188 O.3       1 <0>        -0.7009
     26 N3         -7.6964    1.9496    1.4920 N.pl3     1 <0>        -0.7467
     27 C18        -8.9634    2.5985    1.8382 C.3       1 <0>         0.1899
     28 C19        -8.7680    4.0923    1.8788 C.ar      1 <0>         0.1217
     29 C20        -9.0680    4.8510    0.7630 C.ar      1 <0>        -0.1559
     30 C21        -8.8847    6.2243    0.8108 C.ar      1 <0>        -0.0781
     31 C22        -8.4044    6.7856    1.9844 C.ar      1 <0>        -0.1782
     32 C23        -8.1265    5.9634    3.0596 C.ar      1 <0>         0.0963
     33 N4         -8.3181    4.6609    2.9801 N.ar      1 <0>        -0.4714
     34 C24        -1.9317   -4.6184   -0.7825 C.3       1 <0>        -0.1070
     35 H2          1.2071    1.7739   -0.2330 H         1 <0>         0.0718
     36 H3         -0.4376    1.9009   -0.9017 H         1 <0>         0.0631
     37 H4         -0.2019    1.7215    0.8534 H         1 <0>         0.0631
     38 H5          0.4957   -0.3685   -1.2589 H         1 <0>         0.0584
     39 H6          0.7314   -0.5478    0.4962 H         1 <0>         0.0590
     40 H7         -4.8036   -1.5561   -2.2515 H         1 <0>         0.1119
     41 H8         -4.9510    0.2889   -3.8745 H         1 <0>         0.1256
     42 H9         -4.2253    2.5531   -3.2350 H         1 <0>         0.1271
     43 H10        -3.2162    1.1258    0.6597 H         1 <0>         0.1289
     44 H11        -8.5632   -1.9263    1.0316 H         1 <0>         0.2383
     45 H12        -5.5513    0.5314    1.1465 H         1 <0>         0.0873
     46 H13        -6.8890    2.4794    1.4013 H         1 <0>         0.3860
     47 H14        -9.7152    2.3507    1.0890 H         1 <0>         0.0726
     48 H15        -9.2955    2.2488    2.8157 H         1 <0>         0.0664
     49 H16        -9.4400    4.3799   -0.1348 H         1 <0>         0.1363
     50 H17        -9.1102    6.8423   -0.0457 H         1 <0>         0.1328
     51 H18        -8.2493    7.8520    2.0570 H         1 <0>         0.1321
     52 H19        -7.7521    6.3928    3.9771 H         1 <0>         0.1539
     53 H20        -1.4231   -4.9928    0.1059 H         1 <0>         0.0824
     54 H21        -2.3501   -5.4554   -1.3415 H         1 <0>         0.0646
     55 H22        -1.2197   -4.0821   -1.4098 H         1 <0>         0.1023
@<TRIPOS>BOND
     1    1    2 1
     2    1   35 1
     3    1   36 1
     4    1   37 1
     5    2    3 1
     6    2   38 1
     7    2   39 1
     8    3    4 1
     9    4    5 2
    10    4    6 1
    11    6   11 1
    12    6    7 2
    13    7    8 1
    14    7   34 1
    15    8    9 2
    16    9   22 1
    17    9   10 1
    18   10   11 1
    19   10   20 1
    20   11   12 1
    21   11   13 1
    22   13   18 ar
    23   13   14 ar
    24   14   15 ar
    25   14   40 1
    26   15   16 ar
    27   15   41 1
    28   16   17 ar
    29   16   42 1
    30   17   18 ar
    31   17   19 1
    32   18   43 1
    33   20   21 2
    34   20   23 1
    35   21   22 1
    36   21   44 1
    37   23   24 2
    38   23   45 1
    39   24   25 1
    40   24   26 1
    41   26   27 1
    42   26   46 1
    43   27   28 1
    44   27   47 1
    45   27   48 1
    46   28   33 ar
    47   28   29 ar
    48   29   30 ar
    49   29   49 1
    50   30   31 ar
    51   30   50 1
    52   31   32 ar
    53   31   51 1
    54   32   33 ar
    55   32   52 1
    56   34   53 1
    57   34   54 1
    58   34   55 1
@<TRIPOS>MOLECULE
ZINC02699159
   64    67     0     0     0
SMALL
USER_CHARGES
7-diethylamino-2-[2-(1-piperidyl)-5-(trifluoromethyl)phenyl]imino-chromene-3-carboxamide
@<TRIPOS>ATOM
      1 C1         -6.6825   -7.4236    4.4204 C.3       1 <0>        -0.1748
      2 C2         -5.5223   -7.7645    5.3577 C.3       1 <0>         0.1112
      3 N1         -4.2787   -7.2099    4.8173 N.pl3     1 <0>        -0.6077
      4 C3         -3.4554   -8.0089    3.9062 C.3       1 <0>         0.1085
      5 C4         -2.4415   -8.8210    4.7145 C.3       1 <0>        -0.1733
      6 C5         -3.8800   -5.9257    5.1688 C.ar      1 <0>         0.2855
      7 C6         -4.6675   -5.1682    6.0377 C.ar      1 <0>        -0.2209
      8 C7         -4.2951   -3.9032    6.3827 C.ar      1 <0>         0.0033
      9 C8         -3.1161   -3.3525    5.8562 C.ar      1 <0>        -0.2265
     10 C9         -2.7429   -2.0227    6.1746 C.2       1 <0>         0.0373
     11 C10        -1.6860   -1.4533    5.4776 C.2       1 <0>        -0.1994
     12 C11        -1.0476   -2.2699    4.4266 C.2       1 <0>         0.4041
     13 N2         -0.4185   -1.7091    3.4172 N.2       1 <0>        -0.4165
     14 C12         0.0726   -2.4837    2.4016 C.ar      1 <0>         0.1244
     15 C13        -0.7547   -2.8589    1.3425 C.ar      1 <0>        -0.0834
     16 C14        -0.2533   -3.6401    0.3208 C.ar      1 <0>        -0.1686
     17 C15         1.0672   -4.0532    0.3417 C.ar      1 <0>        -0.0755
     18 C16         1.8993   -3.6833    1.3829 C.ar      1 <0>        -0.1351
     19 C17         1.4105   -2.9044    2.4193 C.ar      1 <0>         0.1169
     20 N3          2.2488   -2.5347    3.4752 N.pl3     1 <0>        -0.4940
     21 C18         3.3974   -1.7599    2.9888 C.3       1 <0>         0.0649
     22 C19         4.2119   -1.2501    4.1799 C.3       1 <0>        -0.1163
     23 C20         4.6923   -2.4427    5.0114 C.3       1 <0>        -0.1211
     24 C21         3.4796   -3.2601    5.4651 C.3       1 <0>        -0.1152
     25 C22         2.6864   -3.7117    4.2366 C.3       1 <0>         0.0626
     26 C23        -1.1480   -4.0450   -0.8223 C.3       1 <0>         0.5101
     27 F1         -1.0747   -3.0830   -1.8354 F         1 <0>        -0.1745
     28 F2         -0.7323   -5.2831   -1.3239 F         1 <0>        -0.1763
     29 F3         -2.4677   -4.1449   -0.3687 F         1 <0>        -0.1772
     30 O1         -1.1377   -3.6212    4.5358 O.3       1 <0>        -0.2687
     31 C24        -2.3050   -4.1241    5.0009 C.ar      1 <0>         0.2038
     32 C25        -2.7000   -5.4039    4.6538 C.ar      1 <0>        -0.2324
     33 C26        -1.2202   -0.0897    5.7750 C.2       1 <0>         0.5722
     34 O2         -0.2915    0.3858    5.1495 O.2       1 <0>        -0.5010
     35 N4         -1.8225    0.6327    6.7404 N.am      1 <0>        -0.8569
     36 H1         -6.4918   -7.8509    3.4359 H         1 <0>         0.0587
     37 H2         -7.6078   -7.8363    4.8225 H         1 <0>         0.0691
     38 H3         -6.7745   -6.3409    4.3350 H         1 <0>         0.0609
     39 H4         -5.4303   -8.8473    5.4432 H         1 <0>         0.0808
     40 H5         -5.7130   -7.3373    6.3422 H         1 <0>         0.0818
     41 H6         -4.0939   -8.6861    3.3389 H         1 <0>         0.0812
     42 H7         -2.9267   -7.3475    3.2197 H         1 <0>         0.0808
     43 H8         -1.8031   -8.1437    5.2818 H         1 <0>         0.0603
     44 H9         -2.9702   -9.4823    5.4010 H         1 <0>         0.0588
     45 H10        -1.8290   -9.4154    4.0367 H         1 <0>         0.0690
     46 H11        -5.5784   -5.5872    6.4391 H         1 <0>         0.1353
     47 H12        -4.9061   -3.3256    7.0605 H         1 <0>         0.1394
     48 H13        -3.2663   -1.4676    6.9390 H         1 <0>         0.1500
     49 H14        -1.7860   -2.5390    1.3224 H         1 <0>         0.1365
     50 H15         1.4514   -4.6642   -0.4617 H         1 <0>         0.1368
     51 H16         2.9301   -4.0055    1.3901 H         1 <0>         0.1341
     52 H17         3.0418   -0.9124    2.4026 H         1 <0>         0.0782
     53 H18         4.0257   -2.3951    2.3645 H         1 <0>         0.0362
     54 H19         5.0730   -0.6881    3.8182 H         1 <0>         0.0690
     55 H20         3.5881   -0.6037    4.7974 H         1 <0>         0.0758
     56 H21         5.3476   -3.0687    4.4057 H         1 <0>         0.0583
     57 H22         5.2361   -2.0825    5.8847 H         1 <0>         0.0656
     58 H23         2.8443   -2.6454    6.1027 H         1 <0>         0.0717
     59 H24         3.8170   -4.1343    6.0219 H         1 <0>         0.0680
     60 H25         1.8144   -4.2819    4.5568 H         1 <0>         0.0739
     61 H26         3.3181   -4.3377    3.6064 H         1 <0>         0.0371
     62 H27        -2.0930   -5.9953    3.9844 H         1 <0>         0.1396
     63 H28        -2.5631    0.2535    7.2391 H         1 <0>         0.3957
     64 H29        -1.5154    1.5316    6.9365 H         1 <0>         0.4076
@<TRIPOS>BOND
     1    1    2 1
     2    1   36 1
     3    1   37 1
     4    1   38 1
     5    2    3 1
     6    2   39 1
     7    2   40 1
     8    3    4 1
     9    3    6 1
    10    4    5 1
    11    4   41 1
    12    4   42 1
    13    5   43 1
    14    5   44 1
    15    5   45 1
    16    6   32 ar
    17    6    7 ar
    18    7    8 ar
    19    7   46 1
    20    8    9 ar
    21    8   47 1
    22    9   31 ar
    23    9   10 1
    24   10   11 2
    25   10   48 1
    26   11   12 1
    27   11   33 1
    28   12   13 2
    29   12   30 1
    30   13   14 1
    31   14   19 ar
    32   14   15 ar
    33   15   16 ar
    34   15   49 1
    35   16   17 ar
    36   16   26 1
    37   17   18 ar
    38   17   50 1
    39   18   19 ar
    40   18   51 1
    41   19   20 1
    42   20   25 1
    43   20   21 1
    44   21   22 1
    45   21   52 1
    46   21   53 1
    47   22   23 1
    48   22   54 1
    49   22   55 1
    50   23   24 1
    51   23   56 1
    52   23   57 1
    53   24   25 1
    54   24   58 1
    55   24   59 1
    56   25   60 1
    57   25   61 1
    58   26   27 1
    59   26   28 1
    60   26   29 1
    61   30   31 1
    62   31   32 ar
    63   32   62 1
    64   33   34 2
    65   33   35 am
    66   35   63 1
    67   35   64 1
@<TRIPOS>MOLECULE
ZINC22505006
   63    67     0     0     0
SMALL
USER_CHARGES
3-[1-(benzenesulfonyl)-3,4-dihydro-2H-quinolin-6-yl]-1-benzhydryl-urea
@<TRIPOS>ATOM
      1 C1         10.1603    9.1146   -5.9783 C.ar      1 <0>        -0.1166
      2 C2          9.4661    9.4164   -4.8217 C.ar      1 <0>        -0.1136
      3 C3          8.4222    8.6085   -4.4114 C.ar      1 <0>        -0.1041
      4 C4          8.0728    7.4984   -5.1575 C.ar      1 <0>        -0.0855
      5 C5          8.7707    7.1934   -6.3111 C.ar      1 <0>        -0.1113
      6 C6          9.8113    8.0043   -6.7242 C.ar      1 <0>        -0.1149
      7 C7          6.9351    6.6174   -4.7100 C.3       1 <0>         0.2508
      8 C8          5.6962    6.9578   -5.4976 C.ar      1 <0>        -0.0881
      9 C9          5.5349    6.4654   -6.7792 C.ar      1 <0>        -0.1007
     10 C10         4.3963    6.7737   -7.4999 C.ar      1 <0>        -0.1219
     11 C11         3.4237    7.5827   -6.9428 C.ar      1 <0>        -0.1186
     12 C12         3.5876    8.0798   -5.6634 C.ar      1 <0>        -0.1183
     13 C13         4.7238    7.7672   -4.9407 C.ar      1 <0>        -0.1011
     14 N1          7.2868    5.2132   -4.9358 N.am      1 <0>        -0.7460
     15 C14         6.7077    4.2463   -4.1967 C.2       1 <0>         0.7109
     16 O1          5.8934    4.5393   -3.3426 O.2       1 <0>        -0.5730
     17 N2          7.0313    2.9545   -4.4045 N.am      1 <0>        -0.6974
     18 C15         6.3609    1.9425   -3.7031 C.ar      1 <0>         0.1499
     19 C16         5.9694    2.1519   -2.3874 C.ar      1 <0>        -0.0831
     20 C17         5.3114    1.1530   -1.6997 C.ar      1 <0>        -0.1563
     21 C18         5.0407   -0.0610   -2.3216 C.ar      1 <0>         0.1616
     22 C19         5.4268   -0.2709   -3.6360 C.ar      1 <0>        -0.0901
     23 C20         6.0886    0.7326   -4.3236 C.ar      1 <0>        -0.1181
     24 C21         5.1382   -1.5688   -4.3433 C.3       1 <0>        -0.0770
     25 C22         4.8847   -2.6855   -3.3309 C.3       1 <0>        -0.1333
     26 C23         3.8292   -2.2167   -2.3267 C.3       1 <0>         0.1005
     27 N3          4.3752   -1.0622   -1.6004 N.pl3     1 <0>        -0.9336
     28 S1          4.2132   -0.9488    0.0438 S.o2      1 <0>         2.6857
     29 O2          5.3283   -0.2022    0.5112 O.2       1 <0>        -0.9399
     30 O3          3.9214   -2.2575    0.5143 O.2       1 <0>        -0.9449
     31 C24         2.7831    0.0307    0.3601 C.ar      1 <0>        -0.6785
     32 C25         1.5459   -0.5730    0.4856 C.ar      1 <0>        -0.0199
     33 C26         0.4239    0.1954    0.7338 C.ar      1 <0>        -0.1390
     34 C27         0.5391    1.5675    0.8563 C.ar      1 <0>        -0.0599
     35 C28         1.7764    2.1711    0.7312 C.ar      1 <0>        -0.1356
     36 C29         2.8984    1.4027    0.4831 C.ar      1 <0>        -0.0209
     37 H1         10.9757    9.7460   -6.2991 H         1 <0>         0.1236
     38 H2          9.7390   10.2837   -4.2388 H         1 <0>         0.1254
     39 H3          7.8798    8.8443   -3.5077 H         1 <0>         0.1246
     40 H4          8.5007    6.3237   -6.8916 H         1 <0>         0.1191
     41 H5         10.3539    7.7683   -7.6277 H         1 <0>         0.1244
     42 H6          6.7506    6.7520   -3.6340 H         1 <0>         0.1054
     43 H7          6.2967    5.8367   -7.2160 H         1 <0>         0.1152
     44 H8          4.2684    6.3857   -8.4996 H         1 <0>         0.1204
     45 H9          2.5358    7.8267   -7.5073 H         1 <0>         0.1209
     46 H10         2.8278    8.7122   -5.2283 H         1 <0>         0.1226
     47 H11         4.8518    8.1556   -3.9411 H         1 <0>         0.1215
     48 H12         8.0234    4.9481   -5.7085 H         1 <0>         0.4136
     49 H13         7.8213    2.6943   -5.1243 H         1 <0>         0.4268
     50 H14         6.1790    3.0946   -1.9038 H         1 <0>         0.1457
     51 H15         5.0064    1.3140   -0.6762 H         1 <0>         0.1409
     52 H16         6.3943    0.5721   -5.3469 H         1 <0>         0.1293
     53 H17         4.2462   -1.4510   -4.9761 H         1 <0>         0.0800
     54 H18         5.9990   -1.8439   -4.9705 H         1 <0>         0.0828
     55 H19         4.5245   -3.5821   -3.8566 H         1 <0>         0.0890
     56 H20         5.8205   -2.9212   -2.8029 H         1 <0>         0.0757
     57 H21         2.9137   -1.9290   -2.8644 H         1 <0>         0.0804
     58 H22         3.6015   -3.0334   -1.6259 H         1 <0>         0.1075
     59 H23         1.4558   -1.6449    0.3895 H         1 <0>         0.1404
     60 H24        -0.5428   -0.2762    0.8315 H         1 <0>         0.1354
     61 H25        -0.3382    2.1683    1.0454 H         1 <0>         0.1335
     62 H26         1.8664    3.2431    0.8267 H         1 <0>         0.1362
     63 H27         3.8651    1.8743    0.3853 H         1 <0>         0.1415
@<TRIPOS>BOND
     1    1    6 ar
     2    1    2 ar
     3    1   37 1
     4    2    3 ar
     5    2   38 1
     6    3    4 ar
     7    3   39 1
     8    4    5 ar
     9    4    7 1
    10    5    6 ar
    11    5   40 1
    12    6   41 1
    13    7    8 1
    14    7   14 1
    15    7   42 1
    16    8   13 ar
    17    8    9 ar
    18    9   10 ar
    19    9   43 1
    20   10   11 ar
    21   10   44 1
    22   11   12 ar
    23   11   45 1
    24   12   13 ar
    25   12   46 1
    26   13   47 1
    27   14   15 am
    28   14   48 1
    29   15   16 2
    30   15   17 am
    31   17   18 1
    32   17   49 1
    33   18   23 ar
    34   18   19 ar
    35   19   20 ar
    36   19   50 1
    37   20   21 ar
    38   20   51 1
    39   21   27 1
    40   21   22 ar
    41   22   23 ar
    42   22   24 1
    43   23   52 1
    44   24   25 1
    45   24   53 1
    46   24   54 1
    47   25   26 1
    48   25   55 1
    49   25   56 1
    50   26   27 1
    51   26   57 1
    52   26   58 1
    53   27   28 1
    54   28   29 2
    55   28   30 2
    56   28   31 1
    57   31   36 ar
    58   31   32 ar
    59   32   33 ar
    60   32   59 1
    61   33   34 ar
    62   33   60 1
    63   34   35 ar
    64   34   61 1
    65   35   36 ar
    66   35   62 1
    67   36   63 1
@<TRIPOS>MOLECULE
ZINC35352455
   72    76     0     0     0
SMALL
USER_CHARGES

@<TRIPOS>ATOM
      1 C1         -0.1219    1.6687    0.4068 C.3       1 <0>        -0.1280
      2 C2         -0.0730    0.1830    0.1591 C.2       1 <0>         0.2367
      3 C3         -1.2043   -0.5469    0.2708 C.2       1 <0>        -0.2606
      4 C4         -1.1103   -2.0372    0.0133 C.3       1 <0>         0.2217
      5 H1         -1.4531   -2.5553    0.9089 H         1 <0>         0.1014
      6 N1          0.2161   -2.5705   -0.3400 N.pl3     1 <0>        -0.6452
      7 C5          1.2536   -1.7133   -0.4124 C.2       1 <0>         0.5475
      8 S1          2.8014   -2.3194   -0.8221 S.2       1 <0>        -0.5884
      9 N2          1.1123   -0.4023   -0.1798 N.pl3     1 <0>        -0.4948
     10 C6          2.2982    0.4509   -0.2888 C.3       1 <0>         0.0456
     11 C7         -2.0599   -2.3760   -1.1067 C.ar      1 <0>        -0.1304
     12 C8         -1.6890   -2.1463   -2.4189 C.ar      1 <0>        -0.0773
     13 C9         -2.5570   -2.4557   -3.4477 C.ar      1 <0>        -0.1205
     14 C10        -3.8032   -2.9984   -3.1631 C.ar      1 <0>         0.1574
     15 C11        -4.1725   -3.2283   -1.8443 C.ar      1 <0>        -0.1469
     16 C12        -3.2980   -2.9211   -0.8203 C.ar      1 <0>        -0.0547
     17 N3         -4.6851   -3.3126   -4.2031 N.am      1 <0>        -0.6743
     18 C13        -4.2082   -3.7872   -5.3709 C.2       1 <0>         0.5235
     19 O1         -3.0114   -3.8825   -5.5433 O.2       1 <0>        -0.5129
     20 C14        -5.1619   -4.1997   -6.4623 C.3       1 <0>        -0.0668
     21 C15        -6.0688   -5.3206   -5.9505 C.3       1 <0>        -0.1004
     22 C16        -7.0371   -5.7393   -7.0587 C.3       1 <0>        -0.0838
     23 C17        -6.2434   -6.2376   -8.2681 C.3       1 <0>        -0.1110
     24 C18        -5.3365   -5.1167   -8.7799 C.3       1 <0>        -0.0868
     25 C19        -4.3682   -4.6979   -7.6717 C.3       1 <0>        -0.0882
     26 C20        -6.1916   -3.9162   -9.1905 C.3       1 <0>        -0.1110
     27 C21        -6.9853   -3.4180   -7.9811 C.3       1 <0>        -0.0837
     28 C22        -7.8922   -4.5389   -7.4692 C.3       1 <0>        -0.1102
     29 C23        -6.0170   -2.9992   -6.8729 C.3       1 <0>        -0.1013
     30 C24        -2.4343    0.0592    0.6168 C.2       1 <0>         0.5363
     31 O2         -2.4861    1.2579    0.8196 O.2       1 <0>        -0.5114
     32 O3         -3.5505   -0.6918    0.7221 O.3       1 <0>        -0.3394
     33 C25        -4.7578   -0.0137    1.0750 C.3       1 <0>         0.0717
     34 C26        -5.9069   -1.0214    1.1457 C.3       1 <0>        -0.0932
     35 C27        -5.6495   -2.0092    2.2854 C.3       1 <0>        -0.1485
     36 C28        -7.2207   -0.2799    1.4005 C.3       1 <0>        -0.1478
     37 H2          0.8859    2.0800    0.3491 H         1 <0>         0.0804
     38 H3         -0.7513    2.1421   -0.3467 H         1 <0>         0.1059
     39 H4         -0.5356    1.8585    1.3972 H         1 <0>         0.1109
     40 H5          0.3402   -3.5163   -0.5161 H         1 <0>         0.4474
     41 H6          2.7412    0.5851    0.6980 H         1 <0>         0.0867
     42 H7          3.0242   -0.0193   -0.9521 H         1 <0>         0.1289
     43 H8          2.0115    1.4215   -0.6935 H         1 <0>         0.0939
     44 H9         -0.7197   -1.7242   -2.6395 H         1 <0>         0.1141
     45 H10        -2.2670   -2.2754   -4.4723 H         1 <0>         0.1371
     46 H11        -5.1411   -3.6499   -1.6198 H         1 <0>         0.1274
     47 H12        -3.5830   -3.1035    0.2053 H         1 <0>         0.1325
     48 H13        -5.6397   -3.1887   -4.0835 H         1 <0>         0.4103
     49 H14        -5.4596   -6.1758   -5.6580 H         1 <0>         0.0694
     50 H15        -6.6343   -4.9656   -5.0889 H         1 <0>         0.0658
     51 H16        -7.6832   -6.5379   -6.6940 H         1 <0>         0.0758
     52 H17        -5.6342   -7.0928   -7.9756 H         1 <0>         0.0639
     53 H18        -6.9332   -6.5359   -9.0575 H         1 <0>         0.0658
     54 H19        -4.7710   -5.4717   -9.6415 H         1 <0>         0.0759
     55 H20        -3.7221   -3.8994   -8.0364 H         1 <0>         0.0703
     56 H21        -3.7590   -5.5532   -7.3792 H         1 <0>         0.0707
     57 H22        -5.5455   -3.1176   -9.5551 H         1 <0>         0.0637
     58 H23        -6.8814   -4.2145   -9.9799 H         1 <0>         0.0658
     59 H24        -7.5945   -2.5627   -8.2736 H         1 <0>         0.0758
     60 H25        -8.5820   -4.8372   -8.2587 H         1 <0>         0.0667
     61 H26        -8.4577   -4.1839   -6.6076 H         1 <0>         0.0634
     62 H27        -6.5825   -2.6443   -6.0113 H         1 <0>         0.0655
     63 H28        -5.3710   -2.2006   -7.2376 H         1 <0>         0.0693
     64 H29        -4.6347    0.4657    2.0461 H         1 <0>         0.0679
     65 H30        -4.9832    0.7422    0.3227 H         1 <0>         0.0667
     66 H31        -5.9729   -1.5640    0.2027 H         1 <0>         0.0817
     67 H32        -6.4681   -2.7272    2.3358 H         1 <0>         0.0584
     68 H33        -4.7135   -2.5375    2.1039 H         1 <0>         0.0606
     69 H34        -5.5835   -1.4667    3.2285 H         1 <0>         0.0551
     70 H35        -7.4040    0.4239    0.5886 H         1 <0>         0.0579
     71 H36        -8.0393   -0.9978    1.4509 H         1 <0>         0.0655
     72 H37        -7.1547    0.2627    2.3436 H         1 <0>         0.0589
@<TRIPOS>BOND
     1    1    2 1
     2    1   37 1
     3    1   38 1
     4    1   39 1
     5    2    9 1
     6    2    3 2
     7    3    4 1
     8    3   30 1
     9    4    5 1
    10    4    6 1
    11    4   11 1
    12    6    7 1
    13    6   40 1
    14    7    8 2
    15    7    9 1
    16    9   10 1
    17   10   41 1
    18   10   42 1
    19   10   43 1
    20   11   16 ar
    21   11   12 ar
    22   12   13 ar
    23   12   44 1
    24   13   14 ar
    25   13   45 1
    26   14   15 ar
    27   14   17 1
    28   15   16 ar
    29   15   46 1
    30   16   47 1
    31   17   18 am
    32   17   48 1
    33   18   19 2
    34   18   20 1
    35   20   25 1
    36   20   29 1
    37   20   21 1
    38   21   22 1
    39   21   49 1
    40   21   50 1
    41   22   28 1
    42   22   23 1
    43   22   51 1
    44   23   24 1
    45   23   52 1
    46   23   53 1
    47   24   25 1
    48   24   26 1
    49   24   54 1
    50   25   55 1
    51   25   56 1
    52   26   27 1
    53   26   57 1
    54   26   58 1
    55   27   28 1
    56   27   29 1
    57   27   59 1
    58   28   60 1
    59   28   61 1
    60   29   62 1
    61   29   63 1
    62   30   31 2
    63   30   32 1
    64   32   33 1
    65   33   34 1
    66   33   64 1
    67   33   65 1
    68   34   35 1
    69   34   36 1
    70   34   66 1
    71   35   67 1
    72   35   68 1
    73   35   69 1
    74   36   70 1
    75   36   71 1
    76   36   72 1
@<TRIPOS>MOLECULE
ZINC38684517
   52    55     0     0     0
SMALL
USER_CHARGES

@<TRIPOS>ATOM
      1 C1         -0.4539    1.3950    0.3857 C.2       1 <0>        -0.1681
      2 C2         -0.3540    0.0910    0.3106 C.2       1 <0>        -0.1595
      3 C3         -1.5979   -0.7587    0.2672 C.3       1 <0>         0.0876
      4 O1         -1.4572   -1.7577   -0.7449 O.3       1 <0>        -0.3113
      5 C4         -2.4987   -2.6139   -0.9157 C.ar      1 <0>         0.1328
      6 C5         -3.6352   -2.4913   -0.1293 C.ar      1 <0>        -0.2088
      7 C6         -4.6926   -3.3624   -0.3052 C.ar      1 <0>        -0.0761
      8 C7         -4.6191   -4.3561   -1.2640 C.ar      1 <0>        -0.1385
      9 C8         -3.4877   -4.4807   -2.0485 C.ar      1 <0>        -0.0368
     10 C9         -2.4296   -3.6082   -1.8804 C.ar      1 <0>        -0.1432
     11 C10        -3.4108   -5.5651   -3.0922 C.3       1 <0>         0.0836
     12 H1         -2.4509   -5.5050   -3.6052 H         1 <0>         0.1040
     13 C11        -4.5224   -5.3765   -4.0902 C.ar      1 <0>        -0.1145
     14 C12        -4.4129   -4.3878   -5.0521 C.ar      1 <0>        -0.0578
     15 C13        -5.4222   -4.2006   -5.9755 C.ar      1 <0>        -0.1298
     16 C14        -6.5522   -5.0059   -5.9410 C.ar      1 <0>         0.1180
     17 C15        -6.6649   -5.9965   -4.9791 C.ar      1 <0>        -0.1202
     18 C16        -5.6488   -6.1832   -4.0507 C.ar      1 <0>         0.1339
     19 O2         -5.7743   -7.1573   -3.1159 O.3       1 <0>        -0.2420
     20 C17        -4.6861   -7.6144   -2.4743 C.2       1 <0>         0.4427
     21 C18        -3.5364   -6.9065   -2.4265 C.2       1 <0>        -0.2750
     22 C19        -2.4122   -7.4498   -1.7252 C.1       1 <0>         0.2715
     23 N1         -1.5205   -7.8807   -1.1688 N.1       1 <0>        -0.4412
     24 N2         -4.7454   -8.8346   -1.8485 N.pl3     1 <0>        -0.8294
     25 O3         -7.5465   -4.8228   -6.8491 O.3       1 <0>        -0.2865
     26 C20        -7.2977   -5.1454   -8.1334 C.2       1 <0>         0.5098
     27 O4         -6.2496   -5.6819   -8.4328 O.2       1 <0>        -0.4754
     28 C21        -8.2988   -4.8469   -9.1770 C.ar      1 <0>        -0.1122
     29 C22        -9.5022   -4.2250   -8.8369 C.ar      1 <0>        -0.0537
     30 C23       -10.4330   -3.9490   -9.8161 C.ar      1 <0>        -0.1034
     31 C24       -10.1766   -4.2871  -11.1344 C.ar      1 <0>        -0.0563
     32 C25        -8.9854   -4.9043  -11.4780 C.ar      1 <0>        -0.1015
     33 C26        -8.0438   -5.1801  -10.5091 C.ar      1 <0>        -0.0448
     34 Br1       -11.4586   -3.9049  -12.4708 Br        1 <0>        -0.0325
     35 H2          0.4375    2.0040    0.4169 H         1 <0>         0.1092
     36 H3         -1.4276    1.8615    0.4119 H         1 <0>         0.0999
     37 H4          0.6197   -0.3751    0.2799 H         1 <0>         0.1204
     38 H5         -1.7435   -1.2394    1.2345 H         1 <0>         0.0721
     39 H6         -2.4593   -0.1305    0.0403 H         1 <0>         0.0681
     40 H7         -3.6929   -1.7156    0.6200 H         1 <0>         0.1267
     41 H8         -5.5773   -3.2676    0.3069 H         1 <0>         0.1253
     42 H9         -5.4469   -5.0363   -1.4000 H         1 <0>         0.1180
     43 H10        -1.5477   -3.7031   -2.4965 H         1 <0>         0.1313
     44 H11        -3.5347   -3.7598   -5.0803 H         1 <0>         0.1449
     45 H12        -5.3326   -3.4274   -6.7243 H         1 <0>         0.1379
     46 H13        -7.5438   -6.6235   -4.9507 H         1 <0>         0.1491
     47 H14        -5.5648   -9.3532   -1.8737 H         1 <0>         0.4122
     48 H15        -3.9681   -9.1783   -1.3810 H         1 <0>         0.4264
     49 H16        -9.7035   -3.9612   -7.8091 H         1 <0>         0.1508
     50 H17       -11.3641   -3.4685   -9.5544 H         1 <0>         0.1456
     51 H18        -8.7916   -5.1661  -12.5078 H         1 <0>         0.1466
     52 H19        -7.1132   -5.6571  -10.7791 H         1 <0>         0.1499
@<TRIPOS>BOND
     1    1    2 2
     2    1   35 1
     3    1   36 1
     4    2    3 1
     5    2   37 1
     6    3    4 1
     7    3   38 1
     8    3   39 1
     9    4    5 1
    10    5   10 ar
    11    5    6 ar
    12    6    7 ar
    13    6   40 1
    14    7    8 ar
    15    7   41 1
    16    8    9 ar
    17    8   42 1
    18    9   10 ar
    19    9   11 1
    20   10   43 1
    21   11   12 1
    22   11   21 1
    23   11   13 1
    24   13   18 ar
    25   13   14 ar
    26   14   15 ar
    27   14   44 1
    28   15   16 ar
    29   15   45 1
    30   16   17 ar
    31   16   25 1
    32   17   18 ar
    33   17   46 1
    34   18   19 1
    35   19   20 1
    36   20   21 2
    37   20   24 1
    38   21   22 1
    39   22   23 3
    40   24   47 1
    41   24   48 1
    42   25   26 1
    43   26   27 2
    44   26   28 1
    45   28   33 ar
    46   28   29 ar
    47   29   30 ar
    48   29   49 1
    49   30   31 ar
    50   30   50 1
    51   31   32 ar
    52   31   34 1
    53   32   33 ar
    54   32   51 1
    55   33   52 1
@<TRIPOS>MOLECULE
ZINC54642826
   59    63     0     0     0
SMALL
USER_CHARGES

@<TRIPOS>ATOM
      1 C1          3.5345   -1.2468   -1.6665 C.3       1 <0>        -0.1161
      2 C2          2.3042   -1.9768   -1.1926 C.ar      1 <0>        -0.0670
      3 C3          1.1541   -1.9630   -1.9606 C.ar      1 <0>        -0.1328
      4 C4          0.0230   -2.6311   -1.5292 C.ar      1 <0>        -0.0976
      5 C5          0.0387   -3.3152   -0.3294 C.ar      1 <0>        -0.1255
      6 C6          1.1920   -3.3315    0.4439 C.ar      1 <0>         0.1455
      7 C7          2.3283   -2.6636    0.0051 C.ar      1 <0>        -0.1431
      8 N1          1.2111   -4.0229    1.6594 N.am      1 <0>        -0.6640
      9 C8          0.1067   -4.0599    2.4310 C.2       1 <0>         0.5927
     10 O1         -0.9286   -3.5538    2.0370 O.2       1 <0>        -0.5066
     11 C9          0.1500   -4.6867    3.6986 C.2       1 <0>        -0.2901
     12 C10         0.2363   -6.0240    3.7474 C.2       1 <0>         0.2150
     13 N2          0.2724   -6.7121    4.9356 N.pl3     1 <0>        -0.6100
     14 C11        -0.0460   -6.0105    6.0902 C.2       1 <0>         0.5058
     15 N3         -0.3032   -6.4457    7.2937 N.2       1 <0>        -0.5448
     16 C12        -0.5669   -5.4062    8.0991 C.2       1 <0>         0.2155
     17 N4         -0.4761   -4.2923    7.4047 N.2       1 <0>        -0.2631
     18 N5         -0.1369   -4.6578    6.1029 N.pl3     1 <0>        -0.3815
     19 C13         0.1034   -3.8206    4.9290 C.3       1 <0>         0.2852
     20 H1         -0.7037   -3.0945    4.8319 H         1 <0>         0.1159
     21 C14         1.4155   -3.0958    5.0832 C.ar      1 <0>        -0.1185
     22 C15         2.5894   -3.8134    5.2182 C.ar      1 <0>        -0.0653
     23 C16         3.7933   -3.1498    5.3593 C.ar      1 <0>        -0.1533
     24 C17         3.8236   -1.7655    5.3654 C.ar      1 <0>         0.1138
     25 C18         2.6473   -1.0478    5.2301 C.ar      1 <0>        -0.1488
     26 C19         1.4452   -1.7136    5.0839 C.ar      1 <0>        -0.0588
     27 F1          5.0000   -1.1157    5.5036 F         1 <0>        -0.1347
     28 S1         -0.9704   -5.5148    9.8108 S.3       1 <0>         0.0320
     29 C20        -0.9326   -7.2948   10.1585 C.3       1 <0>        -0.0642
     30 C21        -1.2648   -7.5303   11.6094 C.ar      1 <0>        -0.0826
     31 C22        -0.2563   -7.5536   12.5545 C.ar      1 <0>        -0.0983
     32 C23        -0.5610   -7.7696   13.8854 C.ar      1 <0>        -0.1199
     33 C24        -1.8744   -7.9620   14.2713 C.ar      1 <0>        -0.1100
     34 C25        -2.8831   -7.9379   13.3264 C.ar      1 <0>        -0.1198
     35 C26        -2.5787   -7.7175   11.9960 C.ar      1 <0>        -0.0982
     36 C27         0.2951   -6.7978    2.4556 C.3       1 <0>        -0.1357
     37 H2          4.1440   -1.9173   -2.2723 H         1 <0>         0.0721
     38 H3          3.2379   -0.3852   -2.2647 H         1 <0>         0.0687
     39 H4          4.1114   -0.9099   -0.8052 H         1 <0>         0.0664
     40 H5          1.1392   -1.4288   -2.8991 H         1 <0>         0.1232
     41 H6         -0.8737   -2.6177   -2.1309 H         1 <0>         0.1262
     42 H7         -0.8452   -3.8366    0.0072 H         1 <0>         0.1372
     43 H8          3.2281   -2.6777    0.6022 H         1 <0>         0.1237
     44 H9          2.0192   -4.4757    1.9471 H         1 <0>         0.4101
     45 H10         0.5108   -7.6518    4.9666 H         1 <0>         0.4412
     46 H11         2.5655   -4.8932    5.2138 H         1 <0>         0.1225
     47 H12         4.7102   -3.7107    5.4650 H         1 <0>         0.1388
     48 H13         2.6697    0.0320    5.2350 H         1 <0>         0.1421
     49 H14         0.5280   -1.1540    4.9739 H         1 <0>         0.1376
     50 H15        -1.6645   -7.8032    9.5310 H         1 <0>         0.1026
     51 H16         0.0625   -7.6855    9.9456 H         1 <0>         0.1024
     52 H17         0.7698   -7.4032   12.2530 H         1 <0>         0.1260
     53 H18         0.2270   -7.7885   14.6237 H         1 <0>         0.1260
     54 H19        -2.1125   -8.1315   15.3110 H         1 <0>         0.1246
     55 H20        -3.9092   -8.0885   13.6278 H         1 <0>         0.1261
     56 H21        -3.3672   -7.6950   11.2583 H         1 <0>         0.1263
     57 H22         1.3256   -6.8382    2.1029 H         1 <0>         0.0980
     58 H23        -0.0721   -7.8106    2.6217 H         1 <0>         0.0912
     59 H24        -0.3258   -6.3043    1.7079 H         1 <0>         0.0959
@<TRIPOS>BOND
     1    1    2 1
     2    1   37 1
     3    1   38 1
     4    1   39 1
     5    2    7 ar
     6    2    3 ar
     7    3    4 ar
     8    3   40 1
     9    4    5 ar
    10    4   41 1
    11    5    6 ar
    12    5   42 1
    13    6    7 ar
    14    6    8 1
    15    7   43 1
    16    8    9 am
    17    8   44 1
    18    9   10 2
    19    9   11 1
    20   11   19 1
    21   11   12 2
    22   12   13 1
    23   12   36 1
    24   13   14 1
    25   13   45 1
    26   14   18 1
    27   14   15 2
    28   15   16 1
    29   16   17 2
    30   16   28 1
    31   17   18 1
    32   18   19 1
    33   19   20 1
    34   19   21 1
    35   21   26 ar
    36   21   22 ar
    37   22   23 ar
    38   22   46 1
    39   23   24 ar
    40   23   47 1
    41   24   25 ar
    42   24   27 1
    43   25   26 ar
    44   25   48 1
    45   26   49 1
    46   28   29 1
    47   29   30 1
    48   29   50 1
    49   29   51 1
    50   30   35 ar
    51   30   31 ar
    52   31   32 ar
    53   31   52 1
    54   32   33 ar
    55   32   53 1
    56   33   34 ar
    57   33   54 1
    58   34   35 ar
    59   34   55 1
    60   35   56 1
    61   36   57 1
    62   36   58 1
    63   36   59 1
@<TRIPOS>MOLECULE
ZINC49421300
   62    66     0     0     0
SMALL
USER_CHARGES

@<TRIPOS>ATOM
      1 C1          0.9338    1.3976   -1.0571 C.3       1 <0>        -0.1158
      2 C2          0.7817   -0.0902   -0.8720 C.ar      1 <0>        -0.0843
      3 C3          0.7824   -0.9254   -1.9747 C.ar      1 <0>        -0.1222
      4 C4          0.6431   -2.2886   -1.8114 C.ar      1 <0>        -0.1047
      5 C5          0.5019   -2.8237   -0.5319 C.ar      1 <0>        -0.0288
      6 C6          0.5023   -1.9772    0.5757 C.ar      1 <0>        -0.0807
      7 C7          0.6476   -0.6161    0.4005 C.ar      1 <0>        -0.1181
      8 C8          0.3513   -4.2873   -0.3498 C.2       1 <0>        -0.0994
      9 C9         -0.5581   -4.9899   -1.0722 C.2       1 <0>        -0.1920
     10 S1         -0.3951   -6.5792   -0.5586 S.3       1 <0>         0.2740
     11 C10         0.8908   -6.3828    0.6413 C.2       1 <0>        -0.3906
     12 C11         1.1776   -5.0101    0.6027 C.2       1 <0>         0.2326
     13 N1          2.1531   -4.5612    1.4376 N.2       1 <0>        -0.5611
     14 C12         2.7980   -5.3706    2.2364 C.2       1 <0>         0.6438
     15 N2          2.5443   -6.7102    2.2914 N.am      1 <0>        -0.6561
     16 C13         1.5803   -7.2388    1.5000 C.2       1 <0>         0.6034
     17 O1          1.3321   -8.4328    1.5273 O.2       1 <0>        -0.5250
     18 N3          3.7720   -4.8509    3.0540 N.pl3     1 <0>        -0.5909
     19 C14         4.6121   -5.7353    3.8731 C.3       1 <0>         0.1086
     20 C15         6.0840   -5.4216    3.5866 C.3       1 <0>        -0.1335
     21 C16         6.3365   -3.9290    3.8117 C.3       1 <0>        -0.1126
     22 C17         5.4722   -3.1127    2.8479 C.3       1 <0>        -0.1248
     23 H1          5.7101   -3.3909    1.8212 H         1 <0>         0.1048
     24 C18         3.9975   -3.4006    3.1214 C.3       1 <0>         0.1487
     25 C19         5.7460   -1.6443    3.0475 C.2       1 <0>         0.5271
     26 O2          4.8475   -0.8992    3.3768 O.2       1 <0>        -0.5277
     27 N4          6.9893   -1.1590    2.8600 N.am      1 <0>        -0.7249
     28 C20         7.2554    0.2685    3.0540 C.3       1 <0>         0.1856
     29 H2          6.3883    0.8465    2.7344 H         1 <0>         0.1008
     30 C21         7.5314    0.5393    4.5343 C.3       1 <0>        -0.1591
     31 C22         8.4562    0.6711    2.2373 C.ar      1 <0>        -0.1053
     32 C23         9.5460   -0.1749    2.1480 C.ar      1 <0>        -0.0860
     33 C24        10.6475    0.1931    1.3990 C.ar      1 <0>        -0.1489
     34 C25        10.6595    1.4096    0.7378 C.ar      1 <0>         0.1016
     35 C26         9.5675    2.2560    0.8280 C.ar      1 <0>        -0.1478
     36 C27         8.4649    1.8836    1.5733 C.ar      1 <0>        -0.0762
     37 F1         11.7360    1.7705    0.0057 F         1 <0>        -0.1371
     38 H3          1.9914    1.6604   -1.0337 H         1 <0>         0.0695
     39 H4          0.5079    1.6897   -2.0170 H         1 <0>         0.0654
     40 H5          0.4121    1.9188   -0.2544 H         1 <0>         0.0660
     41 H6          0.8919   -0.5097   -2.9655 H         1 <0>         0.1211
     42 H7          0.6431   -2.9396   -2.6731 H         1 <0>         0.1203
     43 H8          0.3929   -2.3862    1.5693 H         1 <0>         0.1206
     44 H9          0.6525    0.0403    1.2582 H         1 <0>         0.1216
     45 H10        -1.2404   -4.6079   -1.8171 H         1 <0>         0.1984
     46 H11         4.4010   -5.5651    4.9288 H         1 <0>         0.0867
     47 H12         4.4040   -6.7748    3.6197 H         1 <0>         0.0798
     48 H13         6.7170   -6.0028    4.2572 H         1 <0>         0.0899
     49 H14         6.3161   -5.6780    2.5530 H         1 <0>         0.0744
     50 H15         6.0806   -3.6683    4.8386 H         1 <0>         0.0767
     51 H16         7.3886   -3.7076    3.6324 H         1 <0>         0.0747
     52 H17         3.3840   -2.9003    2.3722 H         1 <0>         0.1171
     53 H18         3.7351   -3.0358    4.1145 H         1 <0>         0.0828
     54 H19         7.7079   -1.7549    2.5966 H         1 <0>         0.3994
     55 H20         7.7294    1.6014    4.6786 H         1 <0>         0.0699
     56 H21         6.6629    0.2480    5.1250 H         1 <0>         0.0675
     57 H22         8.3985   -0.0387    4.8539 H         1 <0>         0.0597
     58 H23         9.5366   -1.1235    2.6641 H         1 <0>         0.1301
     59 H24        11.4989   -0.4678    1.3297 H         1 <0>         0.1382
     60 H25         9.5758    3.2053    0.3129 H         1 <0>         0.1395
     61 H26         7.6112    2.5418    1.6401 H         1 <0>         0.1370
     62 H27         3.0451   -7.2781    2.8976 H         1 <0>         0.4165
@<TRIPOS>BOND
     1    1    2 1
     2    1   38 1
     3    1   39 1
     4    1   40 1
     5    2    7 ar
     6    2    3 ar
     7    3    4 ar
     8    3   41 1
     9    4    5 ar
    10    4   42 1
    11    5    6 ar
    12    5    8 1
    13    6    7 ar
    14    6   43 1
    15    7   44 1
    16    8   12 1
    17    8    9 2
    18    9   10 1
    19    9   45 1
    20   10   11 1
    21   11   16 1
    22   11   12 2
    23   12   13 1
    24   13   14 2
    25   14   15 1
    26   14   18 1
    27   15   16 am
    28   15   62 1
    29   16   17 2
    30   18   24 1
    31   18   19 1
    32   19   20 1
    33   19   46 1
    34   19   47 1
    35   20   21 1
    36   20   48 1
    37   20   49 1
    38   21   22 1
    39   21   50 1
    40   21   51 1
    41   22   23 1
    42   22   24 1
    43   22   25 1
    44   24   52 1
    45   24   53 1
    46   25   26 2
    47   25   27 am
    48   27   28 1
    49   27   54 1
    50   28   29 1
    51   28   30 1
    52   28   31 1
    53   30   55 1
    54   30   56 1
    55   30   57 1
    56   31   36 ar
    57   31   32 ar
    58   32   33 ar
    59   32   58 1
    60   33   34 ar
    61   33   59 1
    62   34   35 ar
    63   34   37 1
    64   35   36 ar
    65   35   60 1
    66   36   61 1
@<TRIPOS>MOLECULE
ZINC21162459
   70    74     0     0     0
SMALL
USER_CHARGES
N-[(1R,2R,3R)-2,3-dimethylcyclohexyl]-1-[1-[(2-fluorophenyl)methyl]benzimidazol-2-yl]piperidine-4-carboxamide
@<TRIPOS>ATOM
      1 C1          0.2009    0.9715    3.5777 C.3       1 <0>        -0.1591
      2 C2          0.2550    2.4473    3.1774 C.3       1 <0>        -0.0837
      3 H1          1.3043    2.7633    3.0821 H         1 <0>         0.0766
      4 C3         -0.4367    3.2921    4.2492 C.3       1 <0>        -0.1190
      5 C4         -1.8963    2.8527    4.3816 C.3       1 <0>        -0.1216
      6 C5         -2.6100    3.0443    3.0419 C.3       1 <0>        -0.1253
      7 C6         -1.9183    2.1994    1.9701 C.3       1 <0>         0.1514
      8 H2         -1.9797    1.1300    2.2202 H         1 <0>         0.0924
      9 C7         -0.4588    2.6388    1.8378 C.3       1 <0>        -0.0902
     10 H3         -0.4200    3.6998    1.5501 H         1 <0>         0.0752
     11 C8          0.2330    1.7940    0.7660 C.3       1 <0>        -0.1513
     12 N1         -2.6018    2.3828    0.6874 N.am      1 <0>        -0.7331
     13 C9         -3.6861    1.6400    0.3893 C.2       1 <0>         0.5175
     14 O1         -4.0961    0.8198    1.1830 O.2       1 <0>        -0.5338
     15 C10        -4.3892    1.8287   -0.9302 C.3       1 <0>        -0.1149
     16 C11        -4.8910    3.2710   -1.0410 C.3       1 <0>        -0.1111
     17 C12        -5.6579    3.4396   -2.3547 C.3       1 <0>         0.0493
     18 N2         -6.7889    2.5036   -2.3878 N.pl3     1 <0>        -0.4623
     19 C13        -6.3273    1.1107   -2.3310 C.3       1 <0>         0.0341
     20 C14        -5.5818    0.8722   -1.0159 C.3       1 <0>        -0.0962
     21 C15        -7.5759    2.7185   -3.4996 C.cat     1 <0>         0.5562
     22 N3         -7.6151    1.9437   -4.5548 N.pl3     1 <0>        -0.5378
     23 C16        -8.4950    2.4486   -5.4592 C.ar      1 <0>         0.0687
     24 C17        -8.9149    2.0329   -6.7252 C.ar      1 <0>        -0.0818
     25 C18        -9.8463    2.7761   -7.4149 C.ar      1 <0>        -0.0793
     26 C19       -10.3713    3.9350   -6.8624 C.ar      1 <0>        -0.0711
     27 C20        -9.9670    4.3590   -5.6133 C.ar      1 <0>        -0.0838
     28 C21        -9.0298    3.6228   -4.9045 C.ar      1 <0>         0.0833
     29 N4         -8.4348    3.7675   -3.6618 N.pl3     1 <0>        -0.4265
     30 C22        -8.6791    4.8469   -2.7019 C.3       1 <0>         0.1489
     31 C23        -9.7133    4.4033   -1.6996 C.ar      1 <0>        -0.1764
     32 C24        -9.3176    3.8346   -0.5035 C.ar      1 <0>        -0.0564
     33 C25       -10.2659    3.4280    0.4162 C.ar      1 <0>        -0.1278
     34 C26       -11.6113    3.5900    0.1412 C.ar      1 <0>        -0.0628
     35 C27       -12.0092    4.1587   -1.0536 C.ar      1 <0>        -0.1526
     36 C28       -11.0599    4.5703   -1.9739 C.ar      1 <0>         0.1242
     37 F1        -11.4477    5.1312   -3.1403 F         1 <0>        -0.1339
     38 H4          0.7141    0.8338    4.5408 H         1 <0>         0.0582
     39 H5          0.6982    0.3641    2.8071 H         1 <0>         0.0582
     40 H6         -0.8485    0.6557    3.6729 H         1 <0>         0.0604
     41 H7          0.0765    3.1544    5.2123 H         1 <0>         0.0676
     42 H8         -0.3978    4.3531    3.9615 H         1 <0>         0.0631
     43 H9         -1.9351    1.7917    4.6694 H         1 <0>         0.0687
     44 H10        -2.3936    3.4600    5.1522 H         1 <0>         0.0660
     45 H11        -3.6594    2.7285    3.1371 H         1 <0>         0.0645
     46 H12        -2.5711    4.1053    2.7541 H         1 <0>         0.0628
     47 H13        -0.2802    1.9317   -0.1972 H         1 <0>         0.0518
     48 H14         0.1942    0.7330    1.0538 H         1 <0>         0.0605
     49 H15         1.2823    2.1100    0.6708 H         1 <0>         0.0597
     50 H16        -2.2300    3.1268   -0.0325 H         1 <0>         0.4153
     51 H17        -3.6752    1.6147   -1.7391 H         1 <0>         0.1031
     52 H18        -5.5571    3.4935   -0.1944 H         1 <0>         0.0919
     53 H19        -4.0336    3.9599   -1.0239 H         1 <0>         0.0979
     54 H20        -6.0340    4.4705   -2.4299 H         1 <0>         0.0996
     55 H21        -4.9862    3.2317   -3.2007 H         1 <0>         0.0759
     56 H22        -7.1932    0.4348   -2.3889 H         1 <0>         0.1063
     57 H23        -5.6513    0.9137   -3.1761 H         1 <0>         0.0684
     58 H24        -5.2220   -0.1666   -0.9795 H         1 <0>         0.1008
     59 H25        -6.2601    1.0551   -0.1695 H         1 <0>         0.0957
     60 H26        -8.5100    1.1317   -7.1615 H         1 <0>         0.1502
     61 H27       -10.1709    2.4541   -8.3934 H         1 <0>         0.1552
     62 H28       -11.1015    4.5090   -7.4134 H         1 <0>         0.1552
     63 H29       -10.3797    5.2620   -5.1885 H         1 <0>         0.1502
     64 H30        -7.7428    5.0913   -2.1789 H         1 <0>         0.1258
     65 H31        -9.0439    5.7368   -3.2358 H         1 <0>         0.1279
     66 H32        -8.2670    3.7076   -0.2877 H         1 <0>         0.1393
     67 H33        -9.9558    2.9838    1.3505 H         1 <0>         0.1395
     68 H34       -12.3514    3.2723    0.8607 H         1 <0>         0.1429
     69 H35       -13.0601    4.2855   -1.2680 H         1 <0>         0.1449
     70 H36        -6.9870    1.0417   -4.5985 H         1 <0>         0.4868
@<TRIPOS>BOND
     1    1    2 1
     2    1   38 1
     3    1   39 1
     4    1   40 1
     5    2    3 1
     6    2    9 1
     7    2    4 1
     8    4    5 1
     9    4   41 1
    10    4   42 1
    11    5    6 1
    12    5   43 1
    13    5   44 1
    14    6    7 1
    15    6   45 1
    16    6   46 1
    17    7    8 1
    18    7    9 1
    19    7   12 1
    20    9   10 1
    21    9   11 1
    22   11   47 1
    23   11   48 1
    24   11   49 1
    25   12   13 am
    26   12   50 1
    27   13   14 2
    28   13   15 1
    29   15   20 1
    30   15   16 1
    31   15   51 1
    32   16   17 1
    33   16   52 1
    34   16   53 1
    35   17   18 1
    36   17   54 1
    37   17   55 1
    38   18   19 1
    39   18   21 1
    40   19   20 1
    41   19   56 1
    42   19   57 1
    43   20   58 1
    44   20   59 1
    45   21   29 1
    46   21   22 2
    47   22   23 1
    48   22   70 1
    49   23   28 ar
    50   23   24 ar
    51   24   25 ar
    52   24   60 1
    53   25   26 ar
    54   25   61 1
    55   26   27 ar
    56   26   62 1
    57   27   28 ar
    58   27   63 1
    59   28   29 1
    60   29   30 1
    61   30   31 1
    62   30   64 1
    63   30   65 1
    64   31   36 ar
    65   31   32 ar
    66   32   33 ar
    67   32   66 1
    68   33   34 ar
    69   33   67 1
    70   34   35 ar
    71   34   68 1
    72   35   36 ar
    73   35   69 1
    74   36   37 1
@<TRIPOS>MOLECULE
ZINC39037457
   54    57     0     0     0
SMALL
USER_CHARGES

@<TRIPOS>ATOM
      1 C1         -0.0420    1.5024    0.0117 C.3       1 <0>        -0.1226
      2 C2         -0.0153   -0.0043    0.0030 C.ar      1 <0>        -0.0795
      3 C3          0.7469   -0.6863    0.9340 C.ar      1 <0>        -0.0952
      4 C4          0.7736   -2.0669    0.9288 C.ar      1 <0>        -0.1271
      5 C5          0.0334   -2.7708   -0.0126 C.ar      1 <0>         0.1229
      6 C6         -0.7313   -2.0830   -0.9457 C.ar      1 <0>        -0.1090
      7 C7         -0.7573   -0.7020   -0.9320 C.ar      1 <0>        -0.0659
      8 C8         -1.5910    0.0451   -1.9410 C.3       1 <0>        -0.1191
      9 N1          0.0586   -4.1691   -0.0209 N.am      1 <0>        -0.6085
     10 C9         -0.0404   -4.8379   -1.1868 C.2       1 <0>         0.6483
     11 O1         -0.0542   -4.2269   -2.2399 O.2       1 <0>        -0.5080
     12 N2         -0.1239   -6.1791   -1.1870 N.2       1 <0>        -0.3789
     13 C10        -0.2208   -6.8345   -2.3294 C.2       1 <0>         0.3006
     14 N3         -0.3221   -8.1911   -2.5481 N.2       1 <0>         0.0089
     15 N4         -0.4073   -8.7067   -3.6398 N.pl3     1 <0>        -0.1273
     16 C11        -0.4040   -7.8317   -4.8356 C.3       1 <0>         0.0209
     17 H1         -1.3381   -7.9129   -5.3915 H         1 <0>         0.2264
     18 S1         -0.2632   -6.1925   -4.0017 S.3       1 <0>         0.1382
     19 C12         0.7839   -8.1114   -5.7198 C.ar      1 <0>        -0.1080
     20 C13         1.5154   -9.2703   -5.5489 C.ar      1 <0>        -0.0915
     21 C14         2.6053   -9.5280   -6.3600 C.ar      1 <0>        -0.1025
     22 C15         2.9673   -8.6265   -7.3447 C.ar      1 <0>        -0.0601
     23 C16         2.2411   -7.4657   -7.5210 C.ar      1 <0>        -0.1145
     24 C17         1.1412   -7.2063   -6.7117 C.ar      1 <0>        -0.0530
     25 S2          0.2070   -5.7295   -6.9378 S.3       1 <0>        -0.0987
     26 C18         1.0379   -4.8912   -8.3153 C.3       1 <0>        -0.0504
     27 C19         0.3294   -3.5955   -8.6157 C.ar      1 <0>        -0.1089
     28 C20        -0.7114   -3.5722   -9.5253 C.ar      1 <0>        -0.0645
     29 C21        -1.3622   -2.3847   -9.8012 C.ar      1 <0>        -0.1531
     30 C22        -0.9715   -1.2180   -9.1662 C.ar      1 <0>         0.1208
     31 C23         0.0710   -1.2426   -8.2554 C.ar      1 <0>        -0.1526
     32 C24         0.7169   -2.4322   -7.9771 C.ar      1 <0>        -0.0642
     33 F1         -1.6067   -0.0564   -9.4355 F         1 <0>        -0.1306
     34 H2         -0.8468    1.8478    0.6606 H         1 <0>         0.0769
     35 H3          0.9109    1.8806    0.3819 H         1 <0>         0.0714
     36 H4         -0.2095    1.8686   -1.0012 H         1 <0>         0.0725
     37 H5          1.3222   -0.1384    1.6657 H         1 <0>         0.1354
     38 H6          1.3696   -2.5988    1.6557 H         1 <0>         0.1323
     39 H7         -1.3076   -2.6274   -1.6792 H         1 <0>         0.1330
     40 H8         -0.9935    0.2428   -2.8309 H         1 <0>         0.0752
     41 H9         -2.4587   -0.5563   -2.2121 H         1 <0>         0.0674
     42 H10        -1.9237    0.9892   -1.5096 H         1 <0>         0.0753
     43 H11         0.1472   -4.6575    0.8124 H         1 <0>         0.4277
     44 H12         1.2360   -9.9760   -4.7806 H         1 <0>         0.1250
     45 H13         3.1754  -10.4351   -6.2241 H         1 <0>         0.1466
     46 H14         3.8193   -8.8309   -7.9761 H         1 <0>         0.1462
     47 H15         2.5246   -6.7621   -8.2898 H         1 <0>         0.1429
     48 H16         2.0731   -4.6847   -8.0437 H         1 <0>         0.1086
     49 H17         1.0144   -5.5311   -9.1974 H         1 <0>         0.1114
     50 H18        -1.0158   -4.4823  -10.0207 H         1 <0>         0.1377
     51 H19        -2.1750   -2.3667  -10.5121 H         1 <0>         0.1436
     52 H20         0.3769   -0.3331   -7.7597 H         1 <0>         0.1430
     53 H21         1.5272   -2.4525   -7.2634 H         1 <0>         0.1365
     54 H22        -0.4759   -9.6701   -3.7298 H         1 <0>         0.4980
@<TRIPOS>BOND
     1    1    2 1
     2    1   34 1
     3    1   35 1
     4    1   36 1
     5    2    7 ar
     6    2    3 ar
     7    3    4 ar
     8    3   37 1
     9    4    5 ar
    10    4   38 1
    11    5    6 ar
    12    5    9 1
    13    6    7 ar
    14    6   39 1
    15    7    8 1
    16    8   40 1
    17    8   41 1
    18    8   42 1
    19    9   10 am
    20    9   43 1
    21   10   11 2
    22   10   12 1
    23   12   13 2
    24   13   18 1
    25   13   14 1
    26   14   15 2
    27   15   16 1
    28   15   54 1
    29   16   17 1
    30   16   18 1
    31   16   19 1
    32   19   24 ar
    33   19   20 ar
    34   20   21 ar
    35   20   44 1
    36   21   22 ar
    37   21   45 1
    38   22   23 ar
    39   22   46 1
    40   23   24 ar
    41   23   47 1
    42   24   25 1
    43   25   26 1
    44   26   27 1
    45   26   48 1
    46   26   49 1
    47   27   32 ar
    48   27   28 ar
    49   28   29 ar
    50   28   50 1
    51   29   30 ar
    52   29   51 1
    53   30   31 ar
    54   30   33 1
    55   31   32 ar
    56   31   52 1
    57   32   53 1
@<TRIPOS>MOLECULE
ZINC44854146
   75    79     0     0     0
SMALL
USER_CHARGES

@<TRIPOS>ATOM
      1 C1         -0.0449    1.5253   -0.0046 C.3       1 <0>        -0.1489
      2 C2         -0.0106   -0.0043   -0.0052 C.3       1 <0>        -0.0924
      3 C3         -1.4418   -0.5464   -0.0066 C.3       1 <0>        -0.1318
      4 C4         -1.4036   -2.0774   -0.0422 C.3       1 <0>         0.1166
      5 N1         -0.5782   -2.5560    1.0751 N.pl3     1 <0>        -0.6237
      6 C5          0.7853   -2.0288    1.2225 C.3       1 <0>         0.1183
      7 C6          0.7226   -0.4983    1.2439 C.3       1 <0>        -0.1312
      8 C7         -1.0802   -3.4939    1.9801 C.ar      1 <0>         0.2326
      9 C8         -2.4066   -3.8987    1.8991 C.ar      1 <0>        -0.1963
     10 C9         -2.8997   -4.8266    2.7952 C.ar      1 <0>        -0.0517
     11 C10        -2.0748   -5.3523    3.7727 C.ar      1 <0>        -0.1679
     12 C11        -0.7539   -4.9515    3.8562 C.ar      1 <0>        -0.0633
     13 C12        -0.2528   -4.0282    2.9597 C.ar      1 <0>        -0.1989
     14 C13        -2.6166   -6.3639    4.7495 C.3       1 <0>         0.1944
     15 H1         -3.7043   -6.2975    4.7755 H         1 <0>         0.0961
     16 C14        -2.2019   -7.7697    4.3106 C.3       1 <0>        -0.1587
     17 N2         -2.0786   -6.0905    6.0845 N.am      1 <0>        -0.7104
     18 C15        -2.7553   -6.4918    7.1788 C.2       1 <0>         0.5243
     19 O1         -3.8095   -7.0792    7.0585 O.2       1 <0>        -0.5299
     20 C16        -2.2019   -6.2106    8.5521 C.3       1 <0>        -0.1324
     21 H2         -2.0959   -5.1344    8.6884 H         1 <0>         0.1197
     22 C17        -0.8333   -6.8819    8.6992 C.3       1 <0>        -0.1298
     23 C18        -0.3154   -6.6563   10.1226 C.3       1 <0>        -0.1412
     24 C19        -1.3380   -7.1986   11.1235 C.3       1 <0>        -0.0137
     25 N3         -2.6166   -6.4990   10.9498 N.4       1 <0>        -0.3827
     26 C20        -3.1551   -6.7684    9.6112 C.3       1 <0>         0.0101
     27 C21        -3.5711   -6.9676   11.9633 C.3       1 <0>         0.0443
     28 C22        -3.0830   -6.5733   13.3335 C.ar      1 <0>        -0.1587
     29 C23        -2.4422   -7.4817   14.1191 C.ar      1 <0>        -0.0604
     30 C24        -1.9839   -7.1355   15.3886 C.ar      1 <0>        -0.1319
     31 C25        -2.1640   -5.8789   15.8802 C.ar      1 <0>        -0.0585
     32 C26        -2.8211   -4.9141   15.0982 C.ar      1 <0>        -0.0578
     33 C27        -3.2818   -5.2645   13.8043 C.ar      1 <0>        -0.0300
     34 C28        -3.9339   -4.2976   13.0199 C.ar      1 <0>        -0.1516
     35 C29        -4.1086   -3.0398   13.5092 C.ar      1 <0>        -0.0783
     36 C30        -3.6498   -2.6934   14.7789 C.ar      1 <0>        -0.1161
     37 C31        -3.0259   -3.6068   15.5719 C.ar      1 <0>        -0.0849
     38 H3          0.9743    1.9116   -0.0048 H         1 <0>         0.0568
     39 H4         -0.5672    1.8774   -0.8942 H         1 <0>         0.0573
     40 H5         -0.5664    1.8767    0.8858 H         1 <0>         0.0539
     41 H6          0.5113   -0.3554   -0.8954 H         1 <0>         0.0721
     42 H7         -1.9568   -0.2162    0.8956 H         1 <0>         0.0664
     43 H8         -1.9706   -0.1751   -0.8845 H         1 <0>         0.0760
     44 H9         -2.4155   -2.4705    0.0564 H         1 <0>         0.0844
     45 H10        -0.9704   -2.4103   -0.9854 H         1 <0>         0.0656
     46 H11         1.2178   -2.3899    2.1556 H         1 <0>         0.0823
     47 H12         1.3971   -2.3577    0.3824 H         1 <0>         0.0647
     48 H13         1.7343   -0.0929    1.2561 H         1 <0>         0.0752
     49 H14         0.1873   -0.1686    2.1343 H         1 <0>         0.0659
     50 H15        -3.0515   -3.4880    1.1363 H         1 <0>         0.1268
     51 H16        -3.9308   -5.1418    2.7328 H         1 <0>         0.1233
     52 H17        -0.1124   -5.3640    4.6208 H         1 <0>         0.1140
     53 H18         0.7800   -3.7190    3.0226 H         1 <0>         0.1245
     54 H19        -2.5938   -8.5014    5.0171 H         1 <0>         0.0605
     55 H20        -2.6022   -7.9731    3.3173 H         1 <0>         0.0731
     56 H21        -1.1142   -7.8361    4.2846 H         1 <0>         0.0595
     57 H22        -1.2355   -5.6208    6.1807 H         1 <0>         0.4017
     58 H23        -0.9299   -7.9513    8.5117 H         1 <0>         0.0910
     59 H24        -0.1352   -6.4469    7.9841 H         1 <0>         0.0986
     60 H25         0.6327   -7.1782   10.2520 H         1 <0>         0.1180
     61 H26        -0.1704   -5.5894   10.2923 H         1 <0>         0.0900
     62 H27        -1.4820   -8.2655   10.9531 H         1 <0>         0.1313
     63 H28        -0.9723   -7.0397   12.1380 H         1 <0>         0.1326
     64 H29        -4.1301   -6.2921    9.5088 H         1 <0>         0.1391
     65 H30        -3.2611   -7.8445    9.4733 H         1 <0>         0.1401
     66 H31        -4.5460   -6.5155   11.7809 H         1 <0>         0.1386
     67 H32        -3.6576   -8.0527   11.9068 H         1 <0>         0.1396
     68 H33        -2.2871   -8.4858   13.7532 H         1 <0>         0.1335
     69 H34        -1.4785   -7.8752   15.9917 H         1 <0>         0.1376
     70 H35        -1.8040   -5.6250   16.8663 H         1 <0>         0.1398
     71 H36        -4.2941   -4.5514   12.0339 H         1 <0>         0.1191
     72 H37        -4.6100   -2.2987   12.9043 H         1 <0>         0.1322
     73 H38        -3.8010   -1.6880   15.1431 H         1 <0>         0.1341
     74 H39        -2.6765   -3.3243   16.5540 H         1 <0>         0.1377
     75 H40        -2.4732   -5.5062   11.0593 H         1 <0>         0.4201
@<TRIPOS>BOND
     1    1    2 1
     2    1   38 1
     3    1   39 1
     4    1   40 1
     5    2    7 1
     6    2    3 1
     7    2   41 1
     8    3    4 1
     9    3   42 1
    10    3   43 1
    11    4    5 1
    12    4   44 1
    13    4   45 1
    14    5    6 1
    15    5    8 1
    16    6    7 1
    17    6   46 1
    18    6   47 1
    19    7   48 1
    20    7   49 1
    21    8   13 ar
    22    8    9 ar
    23    9   10 ar
    24    9   50 1
    25   10   11 ar
    26   10   51 1
    27   11   12 ar
    28   11   14 1
    29   12   13 ar
    30   12   52 1
    31   13   53 1
    32   14   15 1
    33   14   16 1
    34   14   17 1
    35   16   54 1
    36   16   55 1
    37   16   56 1
    38   17   18 am
    39   17   57 1
    40   18   19 2
    41   18   20 1
    42   20   21 1
    43   20   26 1
    44   20   22 1
    45   22   23 1
    46   22   58 1
    47   22   59 1
    48   23   24 1
    49   23   60 1
    50   23   61 1
    51   24   25 1
    52   24   62 1
    53   24   63 1
    54   25   26 1
    55   25   27 1
    56   25   75 1
    57   26   64 1
    58   26   65 1
    59   27   28 1
    60   27   66 1
    61   27   67 1
    62   28   33 ar
    63   28   29 ar
    64   29   30 ar
    65   29   68 1
    66   30   31 ar
    67   30   69 1
    68   31   32 ar
    69   31   70 1
    70   32   37 ar
    71   32   33 ar
    72   33   34 ar
    73   34   35 ar
    74   34   71 1
    75   35   36 ar
    76   35   72 1
    77   36   37 ar
    78   36   73 1
    79   37   74 1
@<TRIPOS>MOLECULE
ZINC63515228
   54    56     0     0     0
SMALL
USER_CHARGES

@<TRIPOS>ATOM
      1 C1         -4.6306   -5.3201   -2.2981 C.3       1 <0>        -0.1152
      2 C2         -3.4257   -5.0317   -3.1562 C.ar      1 <0>        -0.1211
      3 C3         -2.4249   -4.2030   -2.6867 C.ar      1 <0>        -0.0145
      4 C4         -1.3196   -3.9376   -3.4735 C.ar      1 <0>        -0.6869
      5 C5         -1.2125   -4.5010   -4.7319 C.ar      1 <0>         0.0257
      6 C6         -2.2100   -5.3306   -5.2057 C.ar      1 <0>        -0.1200
      7 C7         -3.3179   -5.6026   -4.4158 C.ar      1 <0>         0.1584
      8 O1         -4.2981   -6.4230   -4.8774 O.3       1 <0>        -0.3354
      9 C8         -5.3667   -5.8123   -5.6035 C.3       1 <0>         0.0325
     10 C9         -2.0926   -5.9442   -6.5771 C.3       1 <0>        -0.1166
     11 C10        -0.0065   -4.2093   -5.5872 C.3       1 <0>        -0.1689
     12 S1         -0.0456   -2.8794   -2.8723 S.o2      1 <0>         2.6942
     13 O2          0.1912   -1.9123   -3.8861 O.2       1 <0>        -0.9391
     14 O3         -0.4083   -2.5198   -1.5463 O.2       1 <0>        -0.9471
     15 N1          1.3327   -3.7899   -2.7555 N.pl3     1 <0>        -1.1178
     16 C11         1.3847   -4.9249   -1.8308 C.3       1 <0>         0.1035
     17 C12         2.5773   -5.8160   -2.1835 C.3       1 <0>        -0.1045
     18 C13         2.6243   -6.9895   -1.2392 C.2       1 <0>         0.0874
     19 C14         1.7612   -7.2588   -0.2333 C.ar      1 <0>        -0.1754
     20 C15         0.5668   -6.5658    0.2641 C.ar      1 <0>         0.0030
     21 C16        -0.1067   -7.0903    1.3140 C.ar      1 <0>        -0.1320
     22 C17         0.3076   -8.2766    1.9372 C.ar      1 <0>         0.0657
     23 C18         1.3947   -8.9690    1.5369 C.ar      1 <0>        -0.1929
     24 C19         2.1770   -8.5091    0.4416 C.ar      1 <0>         0.3402
     25 N2          3.2552   -8.9939   -0.1251 N.pl3     1 <0>        -0.5789
     26 C20         3.6422   -8.1080   -1.2287 C.3       1 <0>         0.0966
     27 H1          4.6401   -7.7062   -1.0529 H         1 <0>         0.1785
     28 C21         3.6049   -8.8675   -2.5564 C.3       1 <0>        -0.1575
     29 Br1        -1.6461   -6.2007    1.9580 Br        1 <0>         0.0141
     30 H2         -4.4366   -6.1988   -1.6830 H         1 <0>         0.0774
     31 H3         -4.8319   -4.4635   -1.6548 H         1 <0>         0.0737
     32 H4         -5.4946   -5.5066   -2.9359 H         1 <0>         0.0725
     33 H5         -2.5063   -3.7618   -1.7043 H         1 <0>         0.1493
     34 H6         -5.8696   -5.0847   -4.9665 H         1 <0>         0.0534
     35 H7         -4.9668   -5.3093   -6.4840 H         1 <0>         0.0528
     36 H8         -6.0787   -6.5770   -5.9139 H         1 <0>         0.1039
     37 H9         -1.5814   -6.9040   -6.5031 H         1 <0>         0.0764
     38 H10        -3.0883   -6.0941   -6.9945 H         1 <0>         0.0722
     39 H11        -1.5233   -5.2782   -7.2255 H         1 <0>         0.0760
     40 H12         0.7306   -5.0019   -5.4584 H         1 <0>         0.0851
     41 H13        -0.3069   -4.1589   -6.6337 H         1 <0>         0.0938
     42 H14         0.4291   -3.2559   -5.2879 H         1 <0>         0.0959
     43 H15         2.1057   -3.5716   -3.2994 H         1 <0>         0.4256
     44 H16         1.4948   -4.5576   -0.8104 H         1 <0>         0.0897
     45 H17         0.4635   -5.5020   -1.9117 H         1 <0>         0.0848
     46 H18         2.4712   -6.1769   -3.2066 H         1 <0>         0.1377
     47 H19         3.4991   -5.2412   -2.0948 H         1 <0>         0.1397
     48 H20         0.2307   -5.6507   -0.2006 H         1 <0>         0.1761
     49 H21        -0.2667   -8.6511    2.7717 H         1 <0>         0.1701
     50 H22         1.6720   -9.8775    2.0509 H         1 <0>         0.1709
     51 H23         3.8347   -8.1831   -3.3730 H         1 <0>         0.1088
     52 H24         4.3421   -9.6701   -2.5366 H         1 <0>         0.0982
     53 H25         2.6113   -9.2902   -2.7053 H         1 <0>         0.0834
     54 H26         3.7174   -9.8048    0.1386 H         1 <0>         0.4567
@<TRIPOS>BOND
     1    1    2 1
     2    1   30 1
     3    1   31 1
     4    1   32 1
     5    2    7 ar
     6    2    3 ar
     7    3    4 ar
     8    3   33 1
     9    4    5 ar
    10    4   12 1
    11    5    6 ar
    12    5   11 1
    13    6    7 ar
    14    6   10 1
    15    7    8 1
    16    8    9 1
    17    9   34 1
    18    9   35 1
    19    9   36 1
    20   10   37 1
    21   10   38 1
    22   10   39 1
    23   11   40 1
    24   11   41 1
    25   11   42 1
    26   12   13 2
    27   12   14 2
    28   12   15 1
    29   15   16 1
    30   15   43 1
    31   16   17 1
    32   16   44 1
    33   16   45 1
    34   17   18 1
    35   17   46 1
    36   17   47 1
    37   18   26 1
    38   18   19 2
    39   19   24 ar
    40   19   20 ar
    41   20   21 ar
    42   20   48 1
    43   21   22 ar
    44   21   29 1
    45   22   23 ar
    46   22   49 1
    47   23   24 ar
    48   23   50 1
    49   24   25 2
    50   25   26 1
    51   25   54 1
    52   26   27 1
    53   26   28 1
    54   28   51 1
    55   28   52 1
    56   28   53 1
@<TRIPOS>MOLECULE
ZINC65330828
   60    64     0     0     0
SMALL
USER_CHARGES

@<TRIPOS>ATOM
      1 C1         -0.0184    1.5028    0.0103 C.3       1 <0>        -0.1318
      2 C2          0.0021   -0.0041    0.0020 C.ar      1 <0>        -0.0433
      3 C3          0.0057   -0.6887   -1.1989 C.ar      1 <0>        -0.1183
      4 C4          0.0245   -2.0709   -1.2065 C.ar      1 <0>        -0.0883
      5 C5          0.0400   -2.7685   -0.0132 C.ar      1 <0>        -0.1720
      6 C6          0.0373   -2.0839    1.1877 C.ar      1 <0>        -0.0876
      7 C7          0.0229   -0.7016    1.1953 C.ar      1 <0>        -0.1180
      8 C8          0.0595   -4.2753   -0.0215 C.3       1 <0>         0.0481
      9 N1          1.4506   -4.7470   -0.0318 N.4       1 <0>        -0.3882
     10 C9          2.0975   -4.3609   -1.3039 C.3       1 <0>        -0.0075
     11 C10         3.0378   -5.5439   -1.6446 C.3       1 <0>        -0.1440
     12 C11         2.1968   -6.7588   -1.1718 C.3       1 <0>        -0.1207
     13 H1          1.4752   -7.0487   -1.9356 H         1 <0>         0.1175
     14 C12         1.4770   -6.2169    0.0811 C.3       1 <0>        -0.0054
     15 C13         3.1037   -7.9373   -0.8119 C.3       1 <0>         0.1286
     16 N2          3.7681   -8.4293   -2.0214 N.am      1 <0>        -0.7279
     17 C14         4.6204   -9.4706   -1.9458 C.2       1 <0>         0.6132
     18 O1          4.8380  -10.0021   -0.8733 O.2       1 <0>        -0.5110
     19 C15         5.2868   -9.9641   -3.1590 C.2       1 <0>        -0.2150
     20 C16         6.1617  -10.9930   -3.2751 C.2       1 <0>        -0.0203
     21 C17         6.7048  -11.3127   -4.5837 C.ar      1 <0>        -0.1838
     22 C18         7.6188  -12.3338   -4.9162 C.ar      1 <0>         0.0384
     23 C19         8.0178  -12.4742   -6.2459 C.ar      1 <0>        -0.1389
     24 C20         8.9274  -13.4741   -6.6431 C.ar      1 <0>        -0.0293
     25 C21         9.2884  -13.5756   -7.9484 C.ar      1 <0>        -0.1859
     26 C22         8.7787  -12.7079   -8.9190 C.ar      1 <0>         0.1860
     27 C23         7.8869  -11.7113   -8.5927 C.ar      1 <0>        -0.0836
     28 C24         7.4792  -11.5613   -7.2571 C.ar      1 <0>         0.2173
     29 N3          6.6167  -10.6118   -6.8887 N.ar      1 <0>        -0.4383
     30 C25         6.2424  -10.4803   -5.6402 C.ar      1 <0>         0.1542
     31 S1          5.1301   -9.3568   -4.8266 S.3       1 <0>         0.0920
     32 Cl1         7.2718  -10.6497   -9.8208 Cl        1 <0>        -0.0216
     33 O2          9.1721  -12.8511  -10.2113 O.3       1 <0>        -0.2945
     34 C26        10.0992  -13.9009  -10.4947 C.3       1 <0>         0.0191
     35 H2          1.0042    1.8801    0.0026 H         1 <0>         0.0826
     36 H3         -0.5455    1.8639   -0.8728 H         1 <0>         0.0764
     37 H4         -0.5286    1.8543    0.9071 H         1 <0>         0.0764
     38 H5         -0.0064   -0.1436   -2.1312 H         1 <0>         0.1352
     39 H6          0.0266   -2.6057   -2.1448 H         1 <0>         0.1292
     40 H7          0.0491   -2.6289    2.1200 H         1 <0>         0.1310
     41 H8          0.0245   -0.1667    2.1335 H         1 <0>         0.1353
     42 H9         -0.4447   -4.6501    0.8693 H         1 <0>         0.1361
     43 H10        -0.4546   -4.6404   -0.9106 H         1 <0>         0.1348
     44 H11         1.3496   -4.2330   -2.0864 H         1 <0>         0.1324
     45 H12         2.6728   -3.4442   -1.1741 H         1 <0>         0.1351
     46 H13         3.2287   -5.5947   -2.7165 H         1 <0>         0.1190
     47 H14         3.9712   -5.4741   -1.0861 H         1 <0>         0.1042
     48 H15         2.0225   -6.5102    0.9781 H         1 <0>         0.1378
     49 H16         0.4589   -6.6041    0.1204 H         1 <0>         0.1392
     50 H17         3.8544   -7.6115   -0.0920 H         1 <0>         0.0833
     51 H18         2.5047   -8.7367   -0.3756 H         1 <0>         0.0873
     52 H19         3.5946   -8.0056   -2.8765 H         1 <0>         0.4047
     53 H20         6.4511  -11.5666   -2.4070 H         1 <0>         0.1560
     54 H21         8.0037  -12.9956   -4.1546 H         1 <0>         0.1562
     55 H22         9.3360  -14.1568   -5.9127 H         1 <0>         0.1508
     56 H23         9.9865  -14.3449   -8.2437 H         1 <0>         0.1513
     57 H24        10.3292  -13.9047  -11.5601 H         1 <0>         0.1116
     58 H25        11.0150  -13.7402   -9.9258 H         1 <0>         0.0640
     59 H26         9.6606  -14.8585  -10.2142 H         1 <0>         0.0641
     60 H27         1.9544   -4.3380    0.7409 H         1 <0>         0.4271
@<TRIPOS>BOND
     1    1    2 1
     2    1   35 1
     3    1   36 1
     4    1   37 1
     5    2    7 ar
     6    2    3 ar
     7    3    4 ar
     8    3   38 1
     9    4    5 ar
    10    4   39 1
    11    5    6 ar
    12    5    8 1
    13    6    7 ar
    14    6   40 1
    15    7   41 1
    16    8    9 1
    17    8   42 1
    18    8   43 1
    19    9   14 1
    20    9   10 1
    21    9   60 1
    22   10   11 1
    23   10   44 1
    24   10   45 1
    25   11   12 1
    26   11   46 1
    27   11   47 1
    28   12   13 1
    29   12   14 1
    30   12   15 1
    31   14   48 1
    32   14   49 1
    33   15   16 1
    34   15   50 1
    35   15   51 1
    36   16   17 am
    37   16   52 1
    38   17   18 2
    39   17   19 1
    40   19   31 1
    41   19   20 2
    42   20   21 1
    43   20   53 1
    44   21   30 ar
    45   21   22 ar
    46   22   23 ar
    47   22   54 1
    48   23   28 ar
    49   23   24 ar
    50   24   25 ar
    51   24   55 1
    52   25   26 ar
    53   25   56 1
    54   26   27 ar
    55   26   33 1
    56   27   28 ar
    57   27   32 1
    58   28   29 ar
    59   29   30 ar
    60   30   31 1
    61   33   34 1
    62   34   57 1
    63   34   58 1
    64   34   59 1
@<TRIPOS>MOLECULE
ZINC09925540
   61    64     0     0     0
SMALL
USER_CHARGES
3-bromo-N-[2-(cyclohexylcarbamoyl)phenyl]-4-(tetrahydrofuran-2-ylmethoxy)benzamide
@<TRIPOS>ATOM
      1 C1         -4.7273   -4.3811    0.2972 C.ar      1 <0>        -0.1428
      2 C2         -4.7996   -3.0005    0.2023 C.ar      1 <0>        -0.0702
      3 C3         -3.6486   -2.2461    0.0999 C.ar      1 <0>        -0.1325
      4 C4         -2.4071   -2.8685    0.0907 C.ar      1 <0>         0.2108
      5 C5         -2.3306   -4.2664    0.1812 C.ar      1 <0>        -0.1735
      6 C6         -3.5043   -5.0160    0.2902 C.ar      1 <0>        -0.0669
      7 C7         -1.0185   -4.9402    0.1665 C.2       1 <0>         0.5674
      8 O1          0.0034   -4.2813    0.1743 O.2       1 <0>        -0.5424
      9 N1         -0.9524   -6.2862    0.1444 N.am      1 <0>        -0.7201
     10 C8          0.3507   -6.9554    0.1298 C.3       1 <0>         0.1450
     11 C9          0.8578   -7.0531   -1.3105 C.3       1 <0>        -0.1285
     12 C10         2.2187   -7.7520   -1.3257 C.3       1 <0>        -0.1177
     13 C11         2.0768   -9.1577   -0.7385 C.3       1 <0>        -0.1228
     14 C12         1.5698   -9.0600    0.7017 C.3       1 <0>        -0.1162
     15 C13         0.2088   -8.3611    0.7170 C.3       1 <0>        -0.1272
     16 N2         -1.2449   -2.1097   -0.0135 N.am      1 <0>        -0.6560
     17 C14        -1.1762   -0.8982    0.5730 C.2       1 <0>         0.5693
     18 O2         -2.1555   -0.4328    1.1233 O.2       1 <0>        -0.5199
     19 C15         0.0874   -0.1366    0.5475 C.ar      1 <0>        -0.1758
     20 C16         0.1606    1.1198    1.1552 C.ar      1 <0>         0.0026
     21 C17         1.3414    1.8278    1.1289 C.ar      1 <0>        -0.2163
     22 C18         2.4600    1.2946    0.4996 C.ar      1 <0>         0.1908
     23 C19         2.3917    0.0451   -0.1068 C.ar      1 <0>        -0.1365
     24 C20         1.2138   -0.6696   -0.0848 C.ar      1 <0>        -0.0091
     25 Br1         3.9172   -0.6744   -0.9618 Br        1 <0>        -0.0220
     26 O3          3.6220    1.9956    0.4764 O.3       1 <0>        -0.2838
     27 C21         3.6225    3.2723    1.1183 C.3       1 <0>         0.0438
     28 C22         5.0084    3.9074    0.9896 C.3       1 <0>         0.0833
     29 H1          5.7658    3.2222    1.3703 H         1 <0>         0.0946
     30 C23         5.0537    5.2311    1.7827 C.3       1 <0>        -0.1483
     31 C24         5.8938    6.1454    0.8475 C.3       1 <0>        -0.1556
     32 C25         5.4502    5.6308   -0.5451 C.3       1 <0>         0.0449
     33 O4          5.2768    4.2140   -0.3836 O.3       1 <0>        -0.3658
     34 H2         -5.6340   -4.9624    0.3774 H         1 <0>         0.1315
     35 H3         -5.7628   -2.5119    0.2083 H         1 <0>         0.1329
     36 H4         -3.7133   -1.1705    0.0263 H         1 <0>         0.1479
     37 H5         -3.4535   -6.0923    0.3643 H         1 <0>         0.1289
     38 H6         -1.7676   -6.8118    0.1381 H         1 <0>         0.4000
     39 H7          1.0602   -6.3822    0.7266 H         1 <0>         0.0910
     40 H8          0.1483   -7.6262   -1.9073 H         1 <0>         0.0636
     41 H9          0.9589   -6.0517   -1.7288 H         1 <0>         0.0679
     42 H10         2.9282   -7.1788   -0.7289 H         1 <0>         0.0652
     43 H11         2.5799   -7.8216   -2.3518 H         1 <0>         0.0657
     44 H12         3.0464   -9.6556   -0.7494 H         1 <0>         0.0647
     45 H13         1.3673   -9.7308   -1.3354 H         1 <0>         0.0627
     46 H14         2.2793   -8.4868    1.2985 H         1 <0>         0.0657
     47 H15         1.4687  -10.0614    1.1200 H         1 <0>         0.0680
     48 H16        -0.1524   -8.2914    1.7430 H         1 <0>         0.0691
     49 H17        -0.5007   -8.9342    0.1201 H         1 <0>         0.0684
     50 H18        -0.4844   -2.4528   -0.5083 H         1 <0>         0.4219
     51 H19        -0.7091    1.5369    1.6409 H         1 <0>         0.1477
     52 H20         1.3983    2.7989    1.5981 H         1 <0>         0.1445
     53 H21         1.1612   -1.6401   -0.5558 H         1 <0>         0.1455
     54 H22         2.8819    3.9171    0.6451 H         1 <0>         0.0733
     55 H23         3.3759    3.1488    2.1729 H         1 <0>         0.0791
     56 H24         4.0507    5.6350    1.9210 H         1 <0>         0.0815
     57 H25         5.5526    5.0919    2.7418 H         1 <0>         0.0906
     58 H26         6.9613    5.9889    1.0024 H         1 <0>         0.0822
     59 H27         5.6296    7.1945    0.9810 H         1 <0>         0.0873
     60 H28         6.2217    5.8353   -1.2874 H         1 <0>         0.0890
     61 H29         4.5096    6.0959   -0.8400 H         1 <0>         0.0614
@<TRIPOS>BOND
     1    1    6 ar
     2    1    2 ar
     3    1   34 1
     4    2    3 ar
     5    2   35 1
     6    3    4 ar
     7    3   36 1
     8    4    5 ar
     9    4   16 1
    10    5    6 ar
    11    5    7 1
    12    6   37 1
    13    7    8 2
    14    7    9 am
    15    9   10 1
    16    9   38 1
    17   10   15 1
    18   10   11 1
    19   10   39 1
    20   11   12 1
    21   11   40 1
    22   11   41 1
    23   12   13 1
    24   12   42 1
    25   12   43 1
    26   13   14 1
    27   13   44 1
    28   13   45 1
    29   14   15 1
    30   14   46 1
    31   14   47 1
    32   15   48 1
    33   15   49 1
    34   16   17 am
    35   16   50 1
    36   17   18 2
    37   17   19 1
    38   19   24 ar
    39   19   20 ar
    40   20   21 ar
    41   20   51 1
    42   21   22 ar
    43   21   52 1
    44   22   23 ar
    45   22   26 1
    46   23   24 ar
    47   23   25 1
    48   24   53 1
    49   26   27 1
    50   27   28 1
    51   27   54 1
    52   27   55 1
    53   28   29 1
    54   28   33 1
    55   28   30 1
    56   30   31 1
    57   30   56 1
    58   30   57 1
    59   31   32 1
    60   31   58 1
    61   31   59 1
    62   32   33 1
    63   32   60 1
    64   32   61 1
@<TRIPOS>MOLECULE
ZINC02319341
   55    58     0     0     0
SMALL
USER_CHARGES
4-chloro-N-[(Z)-2-[5-(4-chlorophenyl)-2-furyl]-1-[[(2R)-tetrahydrofuran-2-yl]methylcarbamoyl]vinyl]benzamide
@<TRIPOS>ATOM
      1 C1          5.3455    5.9929    0.7414 C.ar      1 <0>        -0.0818
      2 C2          4.3527    6.9108    1.0120 C.ar      1 <0>        -0.1040
      3 C3          3.0640    6.4818    1.2832 C.ar      1 <0>        -0.0265
      4 C4          2.7622    5.1300    1.2789 C.ar      1 <0>        -0.1042
      5 C5          3.7445    4.2021    1.0042 C.ar      1 <0>        -0.0906
      6 C6          5.0465    4.6281    0.7298 C.ar      1 <0>        -0.0171
      7 C7          6.1028    3.6406    0.4348 C.2       1 <0>         0.0431
      8 C8          7.4267    3.9220    0.2529 C.2       1 <0>        -0.1831
      9 C9          8.0749    2.7088    0.0020 C.2       1 <0>        -0.1572
     10 C10         7.1047    1.7248    0.0333 C.2       1 <0>         0.0095
     11 O1          5.9204    2.3142    0.3003 O.3       1 <0>        -0.1617
     12 C11         7.3169    0.3422   -0.1723 C.2       1 <0>        -0.0531
     13 C12         6.2558   -0.5086   -0.2259 C.2       1 <0>         0.0924
     14 C13         6.4793   -1.9527   -0.3256 C.2       1 <0>         0.5527
     15 O2          5.5352   -2.7197   -0.2745 O.2       1 <0>        -0.5131
     16 N1          7.7300   -2.4324   -0.4740 N.am      1 <0>        -0.7177
     17 C14         7.9536   -3.8768   -0.5738 C.3       1 <0>         0.1245
     18 C15         9.4501   -4.1513   -0.7352 C.3       1 <0>         0.0635
     19 H1          9.9951   -3.7461    0.1174 H         1 <0>         0.0774
     20 C16         9.6960   -5.6688   -0.8410 C.3       1 <0>        -0.1495
     21 C17        10.4012   -5.8445   -2.2079 C.3       1 <0>        -0.1563
     22 C18        10.9593   -4.4225   -2.4705 C.3       1 <0>         0.0462
     23 O3          9.9278   -3.5550   -1.9527 O.3       1 <0>        -0.3713
     24 N2          4.9514   -0.0036   -0.1858 N.am      1 <0>        -0.6592
     25 C19         4.1017   -0.2502   -1.2024 C.2       1 <0>         0.5679
     26 O4          4.4393   -0.9819   -2.1130 O.2       1 <0>        -0.5003
     27 C20         2.7600    0.3685   -1.2105 C.ar      1 <0>        -0.1248
     28 C21         1.9219    0.2104   -2.3160 C.ar      1 <0>        -0.0429
     29 C22         0.6706    0.7898   -2.3175 C.ar      1 <0>        -0.1146
     30 C23         0.2448    1.5279   -1.2254 C.ar      1 <0>        -0.0086
     31 C24         1.0718    1.6883   -0.1259 C.ar      1 <0>        -0.1161
     32 C25         2.3250    1.1132   -0.1124 C.ar      1 <0>        -0.0756
     33 Cl1        -1.3288    2.2608   -1.2379 Cl        1 <0>        -0.0568
     34 Cl2         1.8216    7.6434    1.6307 Cl        1 <0>        -0.0600
     35 H2          6.3511    6.3284    0.5348 H         1 <0>         0.1403
     36 H3          4.5815    7.9663    1.0170 H         1 <0>         0.1424
     37 H4          1.7554    4.8019    1.4915 H         1 <0>         0.1399
     38 H5          3.5080    3.1483    1.0014 H         1 <0>         0.1332
     39 H6          7.8873    4.8978    0.2988 H         1 <0>         0.1583
     40 H7          9.1297    2.5680   -0.1826 H         1 <0>         0.1619
     41 H8          8.3209   -0.0388   -0.2869 H         1 <0>         0.1674
     42 H9          8.4822   -1.8212   -0.5148 H         1 <0>         0.4022
     43 H10         7.5903   -4.3640    0.3311 H         1 <0>         0.0833
     44 H11         7.4170   -4.2687   -1.4378 H         1 <0>         0.0786
     45 H12        10.3426   -6.0079   -0.0317 H         1 <0>         0.0818
     46 H13         8.7502   -6.2105   -0.8274 H         1 <0>         0.0839
     47 H14        11.2093   -6.5727   -2.1380 H         1 <0>         0.0829
     48 H15         9.6873   -6.1314   -2.9800 H         1 <0>         0.0795
     49 H16        11.8943   -4.2715   -1.9311 H         1 <0>         0.0627
     50 H17        11.1026   -4.2576   -3.5383 H         1 <0>         0.0951
     51 H18         4.6588    0.5239    0.5738 H         1 <0>         0.4102
     52 H19         2.2531   -0.3643   -3.1684 H         1 <0>         0.1479
     53 H20         0.0214    0.6682   -3.1720 H         1 <0>         0.1441
     54 H21         0.7343    2.2649    0.7227 H         1 <0>         0.1417
     55 H22         2.9687    1.2387    0.7456 H         1 <0>         0.1314
@<TRIPOS>BOND
     1    1    6 ar
     2    1    2 ar
     3    1   35 1
     4    2    3 ar
     5    2   36 1
     6    3    4 ar
     7    3   34 1
     8    4    5 ar
     9    4   37 1
    10    5    6 ar
    11    5   38 1
    12    6    7 1
    13    7   11 1
    14    7    8 2
    15    8    9 1
    16    8   39 1
    17    9   10 2
    18    9   40 1
    19   10   11 1
    20   10   12 1
    21   12   13 2
    22   12   41 1
    23   13   14 1
    24   13   24 1
    25   14   15 2
    26   14   16 am
    27   16   17 1
    28   16   42 1
    29   17   18 1
    30   17   43 1
    31   17   44 1
    32   18   19 1
    33   18   23 1
    34   18   20 1
    35   20   21 1
    36   20   45 1
    37   20   46 1
    38   21   22 1
    39   21   47 1
    40   21   48 1
    41   22   23 1
    42   22   49 1
    43   22   50 1
    44   24   25 am
    45   24   51 1
    46   25   26 2
    47   25   27 1
    48   27   32 ar
    49   27   28 ar
    50   28   29 ar
    51   28   52 1
    52   29   30 ar
    53   29   53 1
    54   30   31 ar
    55   30   33 1
    56   31   32 ar
    57   31   54 1
    58   32   55 1
@<TRIPOS>MOLECULE
ZINC20170508
   57    60     0     0     0
SMALL
USER_CHARGES
(4S)-5-cyano-N-(4-fluorophenyl)-4-(2-furyl)-2-methyl-6-[2-oxo-2-(p-tolyl)ethyl]sulfanyl-1,4-dihydropyridine-3-carboxamide
@<TRIPOS>ATOM
      1 C1         -8.9615   -9.8885    1.0761 C.3       1 <0>        -0.1279
      2 C2         -7.5310   -9.4277    1.1884 C.ar      1 <0>        -0.0443
      3 C3         -6.5671  -10.2893    1.6824 C.ar      1 <0>        -0.1313
      4 C4         -5.2561   -9.8752    1.7883 C.ar      1 <0>        -0.0491
      5 C5         -4.9016   -8.5809    1.3945 C.ar      1 <0>        -0.1753
      6 C6         -5.8825   -7.7145    0.9014 C.ar      1 <0>        -0.0688
      7 C7         -7.1881   -8.1454    0.7967 C.ar      1 <0>        -0.1331
      8 C8         -3.5047   -8.1309    1.5042 C.2       1 <0>         0.4192
      9 O1         -2.6577   -8.8830    1.9369 O.2       1 <0>        -0.4253
     10 C9         -3.1270   -6.7354    1.0788 C.3       1 <0>        -0.2072
     11 S1         -1.3524   -6.4866    1.3334 S.3       1 <0>         0.0246
     12 C10        -1.1926   -4.8246    0.7706 C.2       1 <0>         0.1745
     13 C11         0.0252   -4.2194    0.7901 C.2       1 <0>        -0.1214
     14 C12         0.2013   -2.8066    0.3101 C.3       1 <0>         0.1252
     15 H1          0.8309   -2.2665    1.0325 H         1 <0>         0.1133
     16 C13        -1.1234   -2.1058    0.2144 C.2       1 <0>        -0.2842
     17 C14        -2.2828   -2.7830    0.2212 C.2       1 <0>         0.2529
     18 N1         -2.3016   -4.1481    0.3137 N.pl3     1 <0>        -0.6463
     19 C15        -3.5833   -2.0284    0.1196 C.3       1 <0>        -0.1153
     20 C16        -1.1508   -0.6936    0.1203 C.2       1 <0>         0.5804
     21 O2         -2.2154   -0.1026    0.1387 O.2       1 <0>        -0.5349
     22 N2          0.0015   -0.0031    0.0103 N.am      1 <0>        -0.6851
     23 C17        -0.0185    1.3963    0.0108 C.ar      1 <0>         0.1462
     24 C18         1.0126    2.1062    0.6119 C.ar      1 <0>        -0.1204
     25 C19         0.9933    3.4872    0.6070 C.ar      1 <0>        -0.1334
     26 C20        -0.0583    4.1638    0.0123 C.ar      1 <0>         0.0788
     27 C21        -1.0902    3.4578   -0.5830 C.ar      1 <0>        -0.1347
     28 C22        -1.0724    2.0769   -0.5847 C.ar      1 <0>        -0.0937
     29 F1         -0.0778    5.5147    0.0132 F         1 <0>        -0.1410
     30 C23         0.8526   -2.8233   -1.0488 C.2       1 <0>        -0.0078
     31 C24         2.0419   -2.2761   -1.3579 C.2       1 <0>        -0.2125
     32 C25         2.2624   -2.5248   -2.7321 C.2       1 <0>        -0.2072
     33 C26         1.1948   -3.2092   -3.1805 C.2       1 <0>        -0.0376
     34 O3          0.3468   -3.3922   -2.1552 O.3       1 <0>        -0.1624
     35 C27         1.1611   -4.9423    1.2779 C.1       1 <0>         0.2537
     36 N3          2.0621   -5.5157    1.6648 N.1       1 <0>        -0.4009
     37 H2         -9.0413  -10.9265    1.4314 H         1 <0>         0.0712
     38 H3         -9.2825   -9.8349    0.0254 H         1 <0>         0.0778
     39 H4         -9.6047   -9.2404    1.6895 H         1 <0>         0.0779
     40 H5         -6.8424  -11.2885    1.9861 H         1 <0>         0.1329
     41 H6         -4.5052  -10.5484    2.1746 H         1 <0>         0.1369
     42 H7         -5.6173   -6.7120    0.5998 H         1 <0>         0.1299
     43 H8         -7.9460   -7.4789    0.4122 H         1 <0>         0.1325
     44 H9         -3.3674   -6.5990    0.0141 H         1 <0>         0.1310
     45 H10        -3.6895   -6.0044    1.6782 H         1 <0>         0.1355
     46 H11        -3.2043   -4.7051    0.0224 H         1 <0>         0.4428
     47 H12        -4.4224   -2.7394    0.1405 H         1 <0>         0.0592
     48 H13        -3.6059   -1.4621   -0.8231 H         1 <0>         0.1026
     49 H14        -3.6708   -1.3329    0.9673 H         1 <0>         0.1117
     50 H15         0.9576   -0.5395   -0.0799 H         1 <0>         0.4303
     51 H16         1.8307    1.5788    1.0799 H         1 <0>         0.1345
     52 H17         1.7971    4.0397    1.0708 H         1 <0>         0.1384
     53 H18        -1.9096    3.9875   -1.0461 H         1 <0>         0.1373
     54 H19        -1.8777    1.5266   -1.0484 H         1 <0>         0.1490
     55 H20         2.7019   -1.7484   -0.6853 H         1 <0>         0.1491
     56 H21         3.1229   -2.2229   -3.3108 H         1 <0>         0.1496
     57 H22         1.0470   -3.5572   -4.1922 H         1 <0>         0.2023
@<TRIPOS>BOND
     1    1    2 1
     2    1   37 1
     3    1   38 1
     4    1   39 1
     5    2    7 ar
     6    2    3 ar
     7    3    4 ar
     8    3   40 1
     9    4    5 ar
    10    4   41 1
    11    5    6 ar
    12    5    8 1
    13    6    7 ar
    14    6   42 1
    15    7   43 1
    16    8    9 2
    17    8   10 1
    18   10   11 1
    19   10   44 1
    20   10   45 1
    21   11   12 1
    22   12   18 1
    23   12   13 2
    24   13   14 1
    25   13   35 1
    26   14   15 1
    27   14   16 1
    28   14   30 1
    29   16   17 2
    30   16   20 1
    31   17   18 1
    32   17   19 1
    33   18   46 1
    34   19   47 1
    35   19   48 1
    36   19   49 1
    37   20   21 2
    38   20   22 am
    39   22   23 1
    40   22   50 1
    41   23   28 ar
    42   23   24 ar
    43   24   25 ar
    44   24   51 1
    45   25   26 ar
    46   25   52 1
    47   26   27 ar
    48   26   29 1
    49   27   28 ar
    50   27   53 1
    51   28   54 1
    52   30   34 1
    53   30   31 2
    54   31   32 1
    55   31   55 1
    56   32   33 2
    57   32   56 1
    58   33   34 1
    59   33   57 1
    60   35   36 3
@<TRIPOS>MOLECULE
ZINC38688477
   44    48     0     0     0
SMALL
USER_CHARGES

@<TRIPOS>ATOM
      1 C1          0.5369    3.3029   -1.4098 C.ar      1 <0>        -0.0528
      2 C2          1.3616    2.7274   -0.4641 C.ar      1 <0>        -0.0787
      3 C3          2.6704    2.4401   -0.7878 C.ar      1 <0>        -0.0884
      4 C4          3.2083    2.7154   -2.0674 C.ar      1 <0>        -0.1100
      5 C5          2.3259    3.3074   -3.0086 C.ar      1 <0>         0.0276
      6 C6          1.0376    3.5844   -2.6745 C.ar      1 <0>        -0.1163
      7 Cl1         2.8982    3.6814   -4.6043 Cl        1 <0>        -0.0402
      8 C7          4.5596    2.3641   -2.2421 C.2       1 <0>         0.0393
      9 C8          5.2520    1.8004   -1.2136 C.2       1 <0>        -0.1934
     10 S1          4.0363    1.7230    0.0903 S.3       1 <0>         0.1674
     11 C9          6.6515    1.3647   -1.1848 C.2       1 <0>         0.5488
     12 O1          7.3483    1.4918   -2.1734 O.2       1 <0>        -0.4458
     13 O2          7.1662    0.8227   -0.0620 O.3       1 <0>        -0.2817
     14 C10         8.4356    0.3399   -0.1105 C.ar      1 <0>         0.1176
     15 C11         8.6563   -1.0278   -0.1975 C.ar      1 <0>        -0.1194
     16 C12         9.9466   -1.5167   -0.2471 C.ar      1 <0>        -0.0576
     17 C13        11.0233   -0.6483   -0.2104 C.ar      1 <0>        -0.1209
     18 C14        10.8088    0.7183   -0.1235 C.ar      1 <0>         0.1370
     19 C15         9.5114    1.2122   -0.0789 C.ar      1 <0>        -0.1197
     20 O3         11.8509    1.5850   -0.0865 O.3       1 <0>        -0.2405
     21 C16        13.0636    1.1936   -0.5118 C.2       1 <0>         0.4492
     22 C17        13.3978   -0.1142   -0.6192 C.2       1 <0>        -0.2866
     23 C18        12.4227   -1.2015   -0.2650 C.3       1 <0>         0.1296
     24 H1         12.6844   -1.6184    0.7075 H         1 <0>         0.1229
     25 C19        12.4891   -2.2897   -1.3054 C.2       1 <0>        -0.0106
     26 C20        12.8197   -3.5740   -1.0804 C.2       1 <0>        -0.1985
     27 C21        12.7540   -4.2383   -2.3267 C.2       1 <0>        -0.2136
     28 C22        12.3872   -3.3202   -3.2388 C.2       1 <0>        -0.0363
     29 O4         12.2225   -2.1430   -2.6135 O.3       1 <0>        -0.1642
     30 C23        14.7065   -0.4683   -1.0801 C.1       1 <0>         0.2729
     31 N1         15.7447   -0.7492   -1.4457 N.1       1 <0>        -0.4391
     32 N2         13.9914    2.1477   -0.8478 N.pl3     1 <0>        -0.8266
     33 Cl2         5.3423    2.6479   -3.7654 Cl        1 <0>        -0.0009
     34 H2         -0.4916    3.5285   -1.1695 H         1 <0>         0.1537
     35 H3          0.9841    2.5040    0.5228 H         1 <0>         0.1494
     36 H4          0.3876    4.0346   -3.4102 H         1 <0>         0.1478
     37 H5          7.8189   -1.7093   -0.2260 H         1 <0>         0.1445
     38 H6         10.1162   -2.5812   -0.3145 H         1 <0>         0.1461
     39 H7          9.3411    2.2768   -0.0154 H         1 <0>         0.1473
     40 H8         13.0851   -4.0133   -0.1301 H         1 <0>         0.1497
     41 H9         12.9594   -5.2824   -2.5111 H         1 <0>         0.1489
     42 H10        12.2452   -3.5000   -4.2942 H         1 <0>         0.2019
     43 H11        13.7670    3.0887   -0.7766 H         1 <0>         0.4132
     44 H12        14.8714    1.8810   -1.1566 H         1 <0>         0.4269
@<TRIPOS>BOND
     1    1    6 ar
     2    1    2 ar
     3    1   34 1
     4    2    3 ar
     5    2   35 1
     6    3   10 1
     7    3    4 ar
     8    4    5 ar
     9    4    8 1
    10    5    6 ar
    11    5    7 1
    12    6   36 1
    13    8    9 2
    14    8   33 1
    15    9   10 1
    16    9   11 1
    17   11   12 2
    18   11   13 1
    19   13   14 1
    20   14   19 ar
    21   14   15 ar
    22   15   16 ar
    23   15   37 1
    24   16   17 ar
    25   16   38 1
    26   17   23 1
    27   17   18 ar
    28   18   19 ar
    29   18   20 1
    30   19   39 1
    31   20   21 1
    32   21   22 2
    33   21   32 1
    34   22   23 1
    35   22   30 1
    36   23   24 1
    37   23   25 1
    38   25   29 1
    39   25   26 2
    40   26   27 1
    41   26   40 1
    42   27   28 2
    43   27   41 1
    44   28   29 1
    45   28   42 1
    46   30   31 3
    47   32   43 1
    48   32   44 1
@<TRIPOS>MOLECULE
ZINC08818345
   70    74     0     0     0
SMALL
NO_CHARGES

@<TRIPOS>ATOM
      1 C1         -0.0187    1.5258    0.0104 C.3       1 <0>        -0.1380
      2 C2          0.0021   -0.0041    0.0020 C.3       1 <0>        -0.1404
      3 C3          0.7074   -0.4901   -1.2379 C.2       1 <0>         0.5188
      4 O1          1.1500    0.3086   -2.0363 O.2       1 <0>        -0.5203
      5 N1          0.8465   -1.8122   -1.4596 N.am      1 <0>        -0.5564
      6 C4          0.3283   -2.7222   -0.5370 C.ar      1 <0>         0.1282
      7 C5         -1.0343   -2.8243   -0.3071 C.ar      1 <0>        -0.0994
      8 C6         -1.5043   -3.7739    0.5832 C.ar      1 <0>        -0.1095
      9 C7         -0.6243   -4.6178    1.2364 C.ar      1 <0>        -0.1029
     10 C8          0.7388   -4.5069    1.0218 C.ar      1 <0>        -0.1142
     11 C9          1.2114   -3.5421    0.1488 C.ar      1 <0>         0.1478
     12 N2          2.5683   -3.3010   -0.0268 N.pl3     1 <0>        -0.6942
     13 C10         3.2411   -3.4595   -1.1951 C.2       1 <0>         0.2622
     14 C11         4.5676   -4.1905   -1.0728 C.3       1 <0>        -0.0985
     15 C12         4.8449   -4.9835   -2.3488 C.3       1 <0>        -0.0003
     16 H1          4.0483   -5.7091   -2.5132 H         1 <0>         0.0652
     17 C13         4.8910   -3.9892   -3.5151 C.3       1 <0>        -0.1527
     18 C14         3.5968   -3.2332   -3.5499 C.2       1 <0>         0.3975
     19 C15         2.8182   -3.0110   -2.3895 C.2       1 <0>        -0.2985
     20 C16         1.5259   -2.2672   -2.6540 C.3       1 <0>         0.2951
     21 H2          1.7449   -1.4008   -3.2781 H         1 <0>         0.1360
     22 C17         0.5953   -3.1751   -3.4161 C.2       1 <0>        -0.0258
     23 C18         0.4494   -3.2092   -4.7528 C.2       1 <0>        -0.1757
     24 C19        -0.5194   -4.1998   -5.0340 C.2       1 <0>        -0.2145
     25 C20        -0.9076   -4.7118   -3.8522 C.2       1 <0>        -0.0479
     26 O2         -0.2249   -4.0914   -2.8761 O.3       1 <0>        -0.1653
     27 O3          3.2023   -2.7955   -4.6129 O.2       1 <0>        -0.4780
     28 C21         6.1677   -5.6955   -2.2303 C.ar      1 <0>        -0.2547
     29 C22         7.3274   -4.9705   -2.0296 C.ar      1 <0>        -0.0794
     30 C23         8.5408   -5.6237   -1.9209 C.ar      1 <0>        -0.1483
     31 C24         8.5945   -7.0019   -2.0125 C.ar      1 <0>        -0.2635
     32 C25         7.4347   -7.7271   -2.2123 C.ar      1 <0>        -0.1543
     33 C26         6.2207   -7.0742   -2.3167 C.ar      1 <0>        -0.0734
     34 N3          9.8218   -7.6624   -1.9035 N.4       1 <0>        -0.2662
     35 C27         9.7808   -8.5869   -0.7626 C.3       1 <0>        -0.0107
     36 C28        11.1612   -9.2170   -0.5669 C.3       1 <0>        -0.1860
     37 C29        10.0828   -8.4174   -3.1364 C.3       1 <0>        -0.0162
     38 C30        10.2494   -7.4439   -4.3049 C.3       1 <0>        -0.1682
     39 H3          1.0039    1.9031    0.0027 H         1 <0>         0.0620
     40 H4         -0.5459    1.8868   -0.8726 H         1 <0>         0.0627
     41 H5         -0.5289    1.8773    0.9072 H         1 <0>         0.0637
     42 H6          0.5293   -0.3651    0.8851 H         1 <0>         0.0932
     43 H7         -1.0205   -0.3814    0.0098 H         1 <0>         0.0957
     44 H8         -1.7235   -2.1683   -0.8179 H         1 <0>         0.1271
     45 H9         -2.5650   -3.8567    0.7688 H         1 <0>         0.1300
     46 H10        -1.0023   -5.3664    1.9170 H         1 <0>         0.1305
     47 H11         1.4265   -5.1661    1.5306 H         1 <0>         0.1325
     48 H12         5.3669   -3.4661   -0.9159 H         1 <0>         0.0881
     49 H13         4.5278   -4.8730   -0.2239 H         1 <0>         0.0855
     50 H14         5.7175   -3.2935   -3.3705 H         1 <0>         0.0958
     51 H15         5.0275   -4.5299   -4.4517 H         1 <0>         0.0913
     52 H16         0.9716   -2.5970   -5.4731 H         1 <0>         0.1521
     53 H17        -0.8791   -4.4896   -6.0102 H         1 <0>         0.1458
     54 H18        -1.6409   -5.4922   -3.7123 H         1 <0>         0.1983
     55 H19         3.0729   -2.9960    0.7434 H         1 <0>         0.4083
     56 H20         7.2855   -3.8937   -1.9580 H         1 <0>         0.0906
     57 H21         9.4470   -5.0571   -1.7648 H         1 <0>         0.0840
     58 H22         7.4767   -8.8038   -2.2842 H         1 <0>         0.0810
     59 H23         5.3141   -7.6409   -2.4691 H         1 <0>         0.0886
     60 H24         9.4997   -8.0406    0.1377 H         1 <0>         0.1150
     61 H25         9.0479   -9.3702   -0.9559 H         1 <0>         0.1099
     62 H26        11.1307   -9.9030    0.2797 H         1 <0>         0.0892
     63 H27        11.4422   -9.7633   -1.4673 H         1 <0>         0.0710
     64 H28        11.8940   -8.4337   -0.3736 H         1 <0>         0.0700
     65 H29        10.9948   -9.0024   -3.0180 H         1 <0>         0.0986
     66 H30         9.2457   -9.0860   -3.3370 H         1 <0>         0.1104
     67 H31         9.3374   -6.8589   -4.4233 H         1 <0>         0.0888
     68 H32        11.0865   -6.7753   -4.1043 H         1 <0>         0.0621
     69 H33        10.4430   -8.0041   -5.2197 H         1 <0>         0.0806
     70 H34        10.5566   -6.9856   -1.7617 H         1 <0>         0.4001
@<TRIPOS>BOND
     1    1    2 1
     2    1   39 1
     3    1   40 1
     4    1   41 1
     5    2    3 1
     6    2   42 1
     7    2   43 1
     8    3    4 2
     9    3    5 am
    10    5   20 1
    11    5    6 1
    12    6   11 ar
    13    6    7 ar
    14    7    8 ar
    15    7   44 1
    16    8    9 ar
    17    8   45 1
    18    9   10 ar
    19    9   46 1
    20   10   11 ar
    21   10   47 1
    22   11   12 1
    23   12   13 1
    24   12   55 1
    25   13   19 2
    26   13   14 1
    27   14   15 1
    28   14   48 1
    29   14   49 1
    30   15   16 1
    31   15   17 1
    32   15   28 1
    33   17   50 1
    34   17   51 1
    35   17   18 1
    36   18   27 2
    37   18   19 1
    38   19   20 1
    39   20   21 1
    40   20   22 1
    41   22   26 1
    42   22   23 2
    43   23   24 1
    44   23   52 1
    45   24   25 2
    46   24   53 1
    47   25   26 1
    48   25   54 1
    49   28   33 ar
    50   28   29 ar
    51   29   30 ar
    52   29   56 1
    53   30   31 ar
    54   30   57 1
    55   31   32 ar
    56   31   34 1
    57   32   33 ar
    58   32   58 1
    59   33   59 1
    60   34   35 1
    61   34   37 1
    62   34   70 1
    63   35   36 1
    64   35   60 1
    65   35   61 1
    66   36   62 1
    67   36   63 1
    68   36   64 1
    69   37   38 1
    70   37   65 1
    71   37   66 1
    72   38   67 1
    73   38   68 1
    74   38   69 1
@<TRIPOS>MOLECULE
ZINC20479786
   37    39     0     0     0
SMALL
USER_CHARGES
(6R)-2-amino-6-methyl-4-(5-methyl-2-furyl)-5,6,7,8-tetrahydroquinoline-3-carbonitrile
@<TRIPOS>ATOM
      1 C1          1.7963   -1.8041   -0.0243 C.3       1 <0>        -0.0797
      2 C2          1.2968   -0.3823   -0.0124 C.2       1 <0>         0.0027
      3 C3          0.0021   -0.0041    0.0020 C.2       1 <0>        -0.2107
      4 C4         -0.0170    1.4029    0.0098 C.2       1 <0>        -0.1646
      5 C5          1.2821    1.8127   -0.0004 C.2       1 <0>        -0.0006
      6 O1          2.0664    0.7169   -0.0138 O.3       1 <0>        -0.1588
      7 C6          1.7484    3.2104    0.0019 C.ar      1 <0>         0.1185
      8 C7          2.4704    3.7246    1.0931 C.ar      1 <0>        -0.1676
      9 C8          2.8914    5.0308    1.0662 C.ar      1 <0>         0.2259
     10 N1          2.6167    5.8086    0.0226 N.ar      1 <0>        -0.5468
     11 C9          1.9440    5.3863   -1.0309 C.ar      1 <0>         0.4677
     12 C10         1.4848    4.0598   -1.0937 C.ar      1 <0>        -0.1424
     13 C11         0.7644    3.5843   -2.2363 C.1       1 <0>         0.2588
     14 N2          0.1930    3.2070   -3.1427 N.1       1 <0>        -0.4105
     15 N3          1.6942    6.2523   -2.0813 N.pl3     1 <0>        -0.8590
     16 C12         3.6784    5.6463    2.1962 C.3       1 <0>        -0.0752
     17 C13         3.5369    4.8121    3.4672 C.3       1 <0>        -0.1171
     18 C14         3.8641    3.3531    3.1273 C.3       1 <0>        -0.0932
     19 H1          4.8239    3.2909    2.5935 H         1 <0>         0.0769
     20 C15         2.7413    2.8015    2.2509 C.3       1 <0>        -0.0651
     21 C16         3.9630    2.5332    4.4153 C.3       1 <0>        -0.1494
     22 H2          0.9394   -2.4938   -0.0200 H         1 <0>         0.0939
     23 H3          2.4153   -1.9827    0.8673 H         1 <0>         0.0827
     24 H4          2.3988   -1.9735   -0.9289 H         1 <0>         0.0813
     25 H5         -0.8576   -0.6577    0.0062 H         1 <0>         0.1531
     26 H6         -0.8923    2.0355    0.0175 H         1 <0>         0.1496
     27 H7          1.1336    5.9028   -2.9608 H         1 <0>         0.4313
     28 H8          2.0563    7.2900   -2.0366 H         1 <0>         0.4354
     29 H9          4.7417    5.6948    1.9186 H         1 <0>         0.0934
     30 H10         3.3042    6.6618    2.3932 H         1 <0>         0.0935
     31 H11         4.2346    5.1862    4.2309 H         1 <0>         0.0783
     32 H12         2.5061    4.8888    3.8433 H         1 <0>         0.0704
     33 H13         1.8309    2.7004    2.8600 H         1 <0>         0.0780
     34 H14         3.0393    1.8134    1.8702 H         1 <0>         0.0777
     35 H15         4.1978    1.4876    4.1672 H         1 <0>         0.0562
     36 H16         3.0037    2.5763    4.9519 H         1 <0>         0.0564
     37 H17         4.7586    2.9463    5.0527 H         1 <0>         0.0592
@<TRIPOS>BOND
     1    1    2 1
     2    1   22 1
     3    1   23 1
     4    1   24 1
     5    2    6 1
     6    2    3 2
     7    3    4 1
     8    3   25 1
     9    4    5 2
    10    4   26 1
    11    5    6 1
    12    5    7 1
    13    7   12 ar
    14    7    8 ar
    15    8   20 1
    16    8    9 ar
    17    9   10 ar
    18    9   16 1
    19   10   11 ar
    20   11   12 ar
    21   11   15 1
    22   12   13 1
    23   13   14 3
    24   15   27 1
    25   15   28 1
    26   16   17 1
    27   16   29 1
    28   16   30 1
    29   17   18 1
    30   17   31 1
    31   17   32 1
    32   18   19 1
    33   18   20 1
    34   18   21 1
    35   20   33 1
    36   20   34 1
    37   21   35 1
    38   21   36 1
    39   21   37 1
@<TRIPOS>MOLECULE
ZINC37798374
   39    41     0     0     0
SMALL
USER_CHARGES

@<TRIPOS>ATOM
      1 C1          0.3631    1.1158   -0.9342 C.3       1 <0>        -0.0846
      2 C2          0.3972   -0.3604   -0.6332 C.2       1 <0>         0.0218
      3 C3          0.5905   -1.3468   -1.5339 C.2       1 <0>        -0.1983
      4 C4          0.5455   -2.5719   -0.8362 C.2       1 <0>        -0.1746
      5 C5          0.3261   -2.2866    0.4567 C.2       1 <0>        -0.0032
      6 N1          0.2442   -0.9276    0.5943 N.pl3     1 <0>        -0.4421
      7 C6          0.0298   -0.2301    1.8671 C.3       1 <0>         0.0875
      8 C7         -0.5399   -1.2153    2.8931 C.3       1 <0>         0.0905
      9 N2          0.2343   -2.4648    2.8489 N.am      1 <0>        -0.6107
     10 C8          0.1894   -3.2594    1.6053 C.3       1 <0>         0.2192
     11 H1         -0.7567   -3.7953    1.5283 H         1 <0>         0.0919
     12 C9          1.3550   -4.2505    1.5917 C.3       1 <0>        -0.1388
     13 C10         0.9555   -2.8721    3.9120 C.2       1 <0>         0.5770
     14 O1          1.5036   -3.9575    3.8952 O.2       1 <0>        -0.5189
     15 C11         1.0801   -2.0018    5.0955 C.ar      1 <0>        -0.1965
     16 C12         1.4772   -0.6697    4.9497 C.ar      1 <0>        -0.0782
     17 C13         1.5913    0.1393    6.0610 C.ar      1 <0>         0.0336
     18 C14         1.3135   -0.3632    7.3245 C.ar      1 <0>        -0.0764
     19 C15         0.9211   -1.6764    7.4828 C.ar      1 <0>        -0.1728
     20 C16         0.7952   -2.5042    6.3741 C.ar      1 <0>         0.2628
     21 N3          0.3943   -3.8257    6.5316 N.pl3     1 <0>        -0.8559
     22 F1          1.9756    1.4267    5.9190 F         1 <0>        -0.1405
     23 H2          1.3699    1.5261   -0.8552 H         1 <0>         0.0706
     24 H3         -0.0145    1.2720   -1.9447 H         1 <0>         0.0810
     25 H4         -0.2906    1.6172   -0.2205 H         1 <0>         0.0611
     26 H5          0.7503   -1.2212   -2.5946 H         1 <0>         0.1374
     27 H6          0.6651   -3.5567   -1.2633 H         1 <0>         0.1379
     28 H7          0.9785    0.1653    2.2299 H         1 <0>         0.0823
     29 H8         -0.6740    0.5890    1.7193 H         1 <0>         0.1005
     30 H9         -0.4731   -0.7810    3.8906 H         1 <0>         0.1123
     31 H10        -1.5829   -1.4249    2.6560 H         1 <0>         0.0871
     32 H11         2.2762   -3.7316    1.8566 H         1 <0>         0.0610
     33 H12         1.1649   -5.0449    2.3134 H         1 <0>         0.0870
     34 H13         1.4542   -4.6810    0.5952 H         1 <0>         0.0606
     35 H14         1.6946   -0.2744    3.9684 H         1 <0>         0.1349
     36 H15         1.4055    0.2774    8.1891 H         1 <0>         0.1418
     37 H16         0.7071   -2.0601    8.4693 H         1 <0>         0.1401
     38 H17         0.2340   -4.3801    5.7519 H         1 <0>         0.4072
     39 H18         0.2748   -4.1936    7.4211 H         1 <0>         0.4046
@<TRIPOS>BOND
     1    1    2 1
     2    1   23 1
     3    1   24 1
     4    1   25 1
     5    2    6 1
     6    2    3 2
     7    3    4 1
     8    3   26 1
     9    4    5 2
    10    4   27 1
    11    5   10 1
    12    5    6 1
    13    6    7 1
    14    7    8 1
    15    7   28 1
    16    7   29 1
    17    8    9 1
    18    8   30 1
    19    8   31 1
    20    9   10 1
    21    9   13 am
    22   10   11 1
    23   10   12 1
    24   12   32 1
    25   12   33 1
    26   12   34 1
    27   13   14 2
    28   13   15 1
    29   15   20 ar
    30   15   16 ar
    31   16   17 ar
    32   16   35 1
    33   17   18 ar
    34   17   22 1
    35   18   19 ar
    36   18   36 1
    37   19   20 ar
    38   19   37 1
    39   20   21 1
    40   21   38 1
    41   21   39 1
@<TRIPOS>MOLECULE
ZINC42278265
   35    36     0     0     0
SMALL
USER_CHARGES

@<TRIPOS>ATOM
      1 C1         -0.0081    1.5412    0.0306 C.3       1 <0>        -0.1680
      2 C2          0.0109    0.0116    0.0033 C.3       1 <0>         0.1386
      3 H1          0.5266   -0.3315   -0.8936 H         1 <0>         0.0972
      4 C3         -1.4258   -0.5200    0.0048 C.3       1 <0>        -0.1296
      5 C4         -2.1011   -0.1497    1.3273 C.3       1 <0>        -0.1129
      6 C5         -1.3445   -0.7997    2.4879 C.3       1 <0>        -0.1253
      7 H2         -1.3321   -1.8814    2.3538 H         1 <0>         0.1046
      8 C6          0.0932   -0.2713    2.5146 C.3       1 <0>         0.1359
      9 N1          0.7063   -0.4937    1.1949 N.pl3     1 <0>        -0.6143
     10 C7          1.9169   -1.1702    1.0760 C.ar      1 <0>         0.2531
     11 C8          2.6202   -1.5409    2.2184 C.ar      1 <0>        -0.2039
     12 C9          3.8177   -2.2100    2.1044 C.ar      1 <0>        -0.0159
     13 C10         4.3274   -2.5171    0.8393 C.ar      1 <0>        -0.0981
     14 C11         3.6183   -2.1432   -0.3061 C.ar      1 <0>        -0.0167
     15 C12         2.4186   -1.4793   -0.1848 C.ar      1 <0>        -0.2041
     16 C13         5.5731   -3.2127    0.7170 C.1       1 <0>         0.2598
     17 N2          6.5613   -3.7645    0.6200 N.1       1 <0>        -0.4335
     18 C14        -2.0295   -0.4618    3.7870 C.2       1 <0>         0.5247
     19 O1         -1.4278    0.1398    4.6512 O.2       1 <0>        -0.5396
     20 N3         -3.3108   -0.8280    3.9884 N.am      1 <0>        -0.8534
     21 H3          1.0150    1.9173    0.0346 H         1 <0>         0.0620
     22 H4         -0.5287    1.9138   -0.8516 H         1 <0>         0.0690
     23 H5         -0.5241    1.8822    0.9281 H         1 <0>         0.0616
     24 H6         -1.9788   -0.0760   -0.8229 H         1 <0>         0.0822
     25 H7         -1.4127   -1.6043   -0.1059 H         1 <0>         0.0723
     26 H8         -2.0918    0.9334    1.4490 H         1 <0>         0.0752
     27 H9         -3.1314   -0.5054    1.3209 H         1 <0>         0.0717
     28 H10         0.0864    0.7953    2.7388 H         1 <0>         0.0781
     29 H11         0.6639   -0.8032    3.2759 H         1 <0>         0.0935
     30 H12         2.2261   -1.3030    3.1954 H         1 <0>         0.1340
     31 H13         4.3631   -2.4971    2.9913 H         1 <0>         0.1313
     32 H14         4.0092   -2.3790   -1.2849 H         1 <0>         0.1311
     33 H15         1.8680   -1.1944   -1.0692 H         1 <0>         0.1329
     34 H16        -3.7921   -1.3092    3.2972 H         1 <0>         0.4022
     35 H17        -3.7517   -0.6105    4.8245 H         1 <0>         0.4041
@<TRIPOS>BOND
     1    1    2 1
     2    1   21 1
     3    1   22 1
     4    1   23 1
     5    2    3 1
     6    2    9 1
     7    2    4 1
     8    4    5 1
     9    4   24 1
    10    4   25 1
    11    5    6 1
    12    5   26 1
    13    5   27 1
    14    6    7 1
    15    6    8 1
    16    6   18 1
    17    8    9 1
    18    8   28 1
    19    8   29 1
    20    9   10 1
    21   10   15 ar
    22   10   11 ar
    23   11   12 ar
    24   11   30 1
    25   12   13 ar
    26   12   31 1
    27   13   14 ar
    28   13   16 1
    29   14   15 ar
    30   14   32 1
    31   15   33 1
    32   16   17 3
    33   18   19 2
    34   18   20 am
    35   20   34 1
    36   20   35 1
@<TRIPOS>MOLECULE
ZINC20218672
   37    40     0     0     0
SMALL
USER_CHARGES

@<TRIPOS>ATOM
      1 C1         -0.0166    1.3764    0.0096 C.ar      1 <0>        -0.1093
      2 C2          1.1732    2.0804    0.0020 C.ar      1 <0>        -0.1158
      3 C3          2.3746    1.4010   -0.0146 C.ar      1 <0>        -0.0753
      4 C4          2.3952    0.0141   -0.0233 C.ar      1 <0>        -0.0830
      5 C5          1.2082   -0.6871   -0.0131 C.ar      1 <0>        -0.0970
      6 C6          0.0021   -0.0041    0.0020 C.ar      1 <0>        -0.1136
      7 C7          1.1858   -2.1943   -0.0138 C.3       1 <0>        -0.0991
      8 C8          2.5543   -2.7320   -0.4341 C.3       1 <0>        -0.0025
      9 N1          3.5866   -2.0794    0.3856 N.4       1 <0>        -0.5044
     10 C9          3.7284   -0.6859   -0.0462 C.3       1 <0>         0.1953
     11 H1          4.1291   -0.6628   -1.0596 H         1 <0>         0.1455
     12 C10         4.6798    0.0270    0.8799 C.2       1 <0>        -0.5322
     13 C11         5.7851    0.6565    0.3773 C.2       1 <0>         0.3808
     14 C12         6.6821    1.3378    1.3235 C.ar      1 <0>        -0.1835
     15 C13         7.8282    2.0009    0.8795 C.ar      1 <0>        -0.0337
     16 C14         8.6470    2.6293    1.7912 C.ar      1 <0>        -0.1573
     17 C15         8.3377    2.6055    3.1433 C.ar      1 <0>        -0.0667
     18 C16         7.2093    1.9540    3.5949 C.ar      1 <0>        -0.1489
     19 C17         6.3698    1.3142    2.6921 C.ar      1 <0>         0.1534
     20 O1          5.2600    0.6727    3.1172 O.3       1 <0>        -0.2849
     21 C18         4.4325    0.0526    2.2609 C.2       1 <0>         0.5347
     22 O2          3.4415   -0.5078    2.6956 O.2       1 <0>        -0.5448
     23 O3          6.0458    0.6524   -0.9499 O.3       1 <0>        -0.6263
     24 H2         -0.9583    1.9050    0.0259 H         1 <0>         0.1262
     25 H3          1.1627    3.1604    0.0088 H         1 <0>         0.1268
     26 H4          3.3033    1.9521   -0.0213 H         1 <0>         0.1290
     27 H5         -0.9272   -0.5543    0.0079 H         1 <0>         0.1252
     28 H6          0.9470   -2.5537    0.9872 H         1 <0>         0.0975
     29 H7          0.4279   -2.5451   -0.7142 H         1 <0>         0.1125
     30 H8          2.5884   -3.8099   -0.2755 H         1 <0>         0.1282
     31 H9          2.7277   -2.5087   -1.4868 H         1 <0>         0.1268
     32 H10         3.3135   -2.1058    1.3566 H         1 <0>         0.4295
     33 H11         8.0712    2.0204   -0.1726 H         1 <0>         0.1398
     34 H12         9.5345    3.1429    1.4520 H         1 <0>         0.1309
     35 H13         8.9871    3.1018    3.8493 H         1 <0>         0.1352
     36 H14         6.9786    1.9412    4.6499 H         1 <0>         0.1377
     37 H15         4.4656   -2.5605    0.2676 H         1 <0>         0.4231
@<TRIPOS>BOND
     1    1    6 ar
     2    1    2 ar
     3    1   24 1
     4    2    3 ar
     5    2   25 1
     6    3    4 ar
     7    3   26 1
     8    4   10 1
     9    4    5 ar
    10    5    6 ar
    11    5    7 1
    12    6   27 1
    13    7    8 1
    14    7   28 1
    15    7   29 1
    16    8    9 1
    17    8   30 1
    18    8   31 1
    19    9   10 1
    20    9   32 1
    21    9   37 1
    22   10   11 1
    23   10   12 1
    24   12   21 1
    25   12   13 2
    26   13   14 1
    27   13   23 1
    28   14   19 ar
    29   14   15 ar
    30   15   16 ar
    31   15   33 1
    32   16   17 ar
    33   16   34 1
    34   17   18 ar
    35   17   35 1
    36   18   19 ar
    37   18   36 1
    38   19   20 1
    39   20   21 1
    40   21   22 2
@<TRIPOS>MOLECULE
ZINC20744943
   28    30     0     0     0
SMALL
USER_CHARGES

@<TRIPOS>ATOM
      1 C1         -0.0167    1.3802    0.0096 C.ar      1 <0>        -0.1391
      2 C2          1.1708    2.0876    0.0021 C.ar      1 <0>        -0.0606
      3 C3          2.3774    1.4138   -0.0135 C.ar      1 <0>        -0.0667
      4 C4          2.3980    0.0301   -0.0212 C.ar      1 <0>        -0.0071
      5 C5          1.2108   -0.6792   -0.0132 C.ar      1 <0>        -0.1424
      6 C6          0.0021   -0.0041    0.0020 C.ar      1 <0>         0.1194
      7 F1         -1.1584   -0.6958    0.0099 F         1 <0>        -0.1276
      8 Cl1         3.9141   -0.8153   -0.0414 Cl        1 <0>        -0.0439
      9 C7          3.6713    2.1863   -0.0227 C.3       1 <0>         0.0446
     10 H1          4.4001    1.6436   -0.6247 H         1 <0>         0.1100
     11 C8          4.1839    2.2880    1.3821 C.2       1 <0>        -0.2599
     12 C9          3.8729    1.3714    2.3406 C.2       1 <0>         0.0867
     13 N1          4.4881    1.7300    3.4818 N.pl3     1 <0>        -0.4471
     14 H2          4.4431    1.2563    4.3272 H         1 <0>         0.4485
     15 N2          5.2022    2.9028    3.2358 N.2       1 <0>        -0.2725
     16 C10         5.0180    3.2526    1.9617 C.2       1 <0>         0.3300
     17 N3          5.5845    4.3701    1.4529 N.2       1 <0>        -0.6003
     18 C11         5.6035    4.9471    0.3438 C.2       1 <0>         0.4579
     19 C12         5.0006    4.5544   -0.9455 C.3       1 <0>        -0.1115
     20 S1          3.3819    3.7928   -0.7718 S.3       1 <0>        -0.1547
     21 O1          6.2818    6.1131    0.3218 O.3       1 <0>        -0.4770
     22 H3         -0.9592    1.9074    0.0260 H         1 <0>         0.1486
     23 H4          1.1558    3.1675    0.0081 H         1 <0>         0.1521
     24 H5          1.2266   -1.7590   -0.0195 H         1 <0>         0.1522
     25 H6          3.2409    0.5058    2.2074 H         1 <0>         0.1739
     26 H7          4.9041    5.4420   -1.5708 H         1 <0>         0.1513
     27 H8          5.6676    3.8505   -1.4431 H         1 <0>         0.1247
     28 H9          6.6709    6.3579    1.1725 H         1 <0>         0.4106
@<TRIPOS>BOND
     1    1    6 ar
     2    1    2 ar
     3    1   22 1
     4    2    3 ar
     5    2   23 1
     6    3    4 ar
     7    3    9 1
     8    4    5 ar
     9    4    8 1
    10    5    6 ar
    11    5   24 1
    12    6    7 1
    13    9   10 1
    14    9   20 1
    15    9   11 1
    16   11   16 1
    17   11   12 2
    18   12   13 1
    19   12   25 1
    20   13   14 1
    21   13   15 1
    22   15   16 2
    23   16   17 1
    24   17   18 2
    25   18   19 1
    26   18   21 1
    27   19   20 1
    28   19   26 1
    29   19   27 1
    30   21   28 1
@<TRIPOS>MOLECULE
ZINC19368109
   61    63     0     0     0
SMALL
USER_CHARGES

@<TRIPOS>ATOM
      1 C1         -1.2187    1.3017    0.7885 C.3       1 <0>        -0.1205
      2 C2         -0.8855   -0.1527    0.5772 C.ar      1 <0>        -0.0696
      3 C3         -1.1924   -1.0811    1.5543 C.ar      1 <0>        -0.1229
      4 C4         -0.8868   -2.4152    1.3605 C.ar      1 <0>        -0.0695
      5 C5         -0.2746   -2.8210    0.1894 C.ar      1 <0>        -0.1220
      6 C6          0.0314   -1.8927   -0.7881 C.ar      1 <0>        -0.0989
      7 C7         -0.2781   -0.5592   -0.5961 C.ar      1 <0>        -0.1229
      8 C8          0.0595   -4.2753   -0.0215 C.3       1 <0>         0.2341
      9 C9          0.8873   -4.7734    1.1351 C.ar      1 <0>        -0.0939
     10 C10         0.2744   -5.1220    2.3242 C.ar      1 <0>        -0.1060
     11 C11         1.0338   -5.5788    3.3851 C.ar      1 <0>        -0.1188
     12 C12         2.4059   -5.6876    3.2568 C.ar      1 <0>        -0.0706
     13 C13         3.0186   -5.3398    2.0675 C.ar      1 <0>        -0.1214
     14 C14         2.2588   -4.8870    1.0051 C.ar      1 <0>        -0.0754
     15 C15         3.2338   -6.1847    4.4138 C.3       1 <0>        -0.1205
     16 C16        -1.2144   -5.0758   -0.1090 C.2       1 <0>         0.5004
     17 O1         -2.2266   -4.6641    0.4170 O.2       1 <0>        -0.5134
     18 N1         -1.2286   -6.2492   -0.7718 N.am      1 <0>        -0.5132
     19 N2         -2.4129   -6.9934   -0.8532 N.am      1 <0>        -0.5180
     20 C17        -2.4271   -8.1669   -1.5160 C.2       1 <0>         0.5136
     21 O2         -1.4148   -8.5786   -2.0420 O.2       1 <0>        -0.5217
     22 C18        -3.7010   -8.9673   -1.6036 C.3       1 <0>         0.0458
     23 N3         -3.4559  -10.1951   -2.3720 N.3       1 <0>        -0.5224
     24 C19        -3.1467   -9.8854   -3.7751 C.3       1 <0>         0.0172
     25 C20        -2.8402  -11.1834   -4.5253 C.3       1 <0>         0.0004
     26 N4         -4.0014  -12.0796   -4.4482 N.4       1 <0>        -0.3893
     27 C21        -4.2827  -12.3995   -3.0425 C.3       1 <0>        -0.0013
     28 C22        -4.6013  -11.1115   -2.2800 C.3       1 <0>         0.0261
     29 C23        -3.7134  -13.3181   -5.1838 C.3       1 <0>        -0.0458
     30 O3          0.7992   -4.4230   -1.2352 O.3       1 <0>        -0.5359
     31 H1         -2.2222    1.5028    0.4134 H         1 <0>         0.0737
     32 H2         -1.1754    1.5335    1.8527 H         1 <0>         0.0695
     33 H3         -0.4996    1.9209    0.2522 H         1 <0>         0.0694
     34 H4         -1.6706   -0.7641    2.4693 H         1 <0>         0.1259
     35 H5         -1.1259   -3.1405    2.1242 H         1 <0>         0.1252
     36 H6          0.5100   -2.2097   -1.7030 H         1 <0>         0.1266
     37 H7         -0.0424    0.1655   -1.3614 H         1 <0>         0.1267
     38 H8         -0.7975   -5.0371    2.4244 H         1 <0>         0.1247
     39 H9          0.5551   -5.8505    4.3143 H         1 <0>         0.1270
     40 H10         4.0906   -5.4244    1.9674 H         1 <0>         0.1283
     41 H11         2.7371   -4.6189    0.0747 H         1 <0>         0.1356
     42 H12         3.3254   -7.2693    4.3554 H         1 <0>         0.0737
     43 H13         4.2251   -5.7335    4.3715 H         1 <0>         0.0705
     44 H14         2.7496   -5.9109    5.3512 H         1 <0>         0.0695
     45 H15        -0.4190   -6.5785   -1.1925 H         1 <0>         0.4396
     46 H16        -3.2225   -6.6641   -0.4325 H         1 <0>         0.4339
     47 H17        -4.0361   -9.2279   -0.5996 H         1 <0>         0.1254
     48 H18        -4.4690   -8.3748   -2.1006 H         1 <0>         0.0845
     49 H19        -4.0027   -9.3924   -4.2359 H         1 <0>         0.0591
     50 H20        -2.2797   -9.2262   -3.8195 H         1 <0>         0.1392
     51 H21        -2.6244  -10.9573   -5.5695 H         1 <0>         0.1367
     52 H22        -1.9757  -11.6692   -4.0727 H         1 <0>         0.1401
     53 H23        -5.1365  -13.0749   -2.9874 H         1 <0>         0.1384
     54 H24        -3.4109  -12.8790   -2.5975 H         1 <0>         0.1393
     55 H25        -4.7955  -11.3469   -1.2336 H         1 <0>         0.1269
     56 H26        -5.4812  -10.6388   -2.7162 H         1 <0>         0.0646
     57 H27        -2.8456  -13.8090   -4.7431 H         1 <0>         0.1236
     58 H28        -4.5750  -13.9833   -5.1267 H         1 <0>         0.1244
     59 H29        -3.5059  -13.0811   -6.2272 H         1 <0>         0.1245
     60 H30         0.3264   -4.1217   -2.0231 H         1 <0>         0.3877
     61 H31        -4.8043  -11.6252   -4.8568 H         1 <0>         0.4219
@<TRIPOS>BOND
     1    1    2 1
     2    1   31 1
     3    1   32 1
     4    1   33 1
     5    2    7 ar
     6    2    3 ar
     7    3    4 ar
     8    3   34 1
     9    4    5 ar
    10    4   35 1
    11    5    6 ar
    12    5    8 1
    13    6    7 ar
    14    6   36 1
    15    7   37 1
    16    8    9 1
    17    8   16 1
    18    8   30 1
    19    9   14 ar
    20    9   10 ar
    21   10   11 ar
    22   10   38 1
    23   11   12 ar
    24   11   39 1
    25   12   13 ar
    26   12   15 1
    27   13   14 ar
    28   13   40 1
    29   14   41 1
    30   15   42 1
    31   15   43 1
    32   15   44 1
    33   16   17 2
    34   16   18 am
    35   18   19 1
    36   18   45 1
    37   19   20 am
    38   19   46 1
    39   20   21 2
    40   20   22 1
    41   22   23 1
    42   22   47 1
    43   22   48 1
    44   23   28 1
    45   23   24 1
    46   24   25 1
    47   24   49 1
    48   24   50 1
    49   25   26 1
    50   25   51 1
    51   25   52 1
    52   26   27 1
    53   26   29 1
    54   26   61 1
    55   27   28 1
    56   27   53 1
    57   27   54 1
    58   28   55 1
    59   28   56 1
    60   29   57 1
    61   29   58 1
    62   29   59 1
    63   30   60 1
@<TRIPOS>MOLECULE
ZINC48025355
   64    66     0     0     0
SMALL
USER_CHARGES

@<TRIPOS>ATOM
      1 C1          3.9700    2.0923    2.2425 C.3       1 <0>        -0.1244
      2 C2          4.2531    0.6091    2.4891 C.3       1 <0>        -0.1206
      3 C3          2.9315   -0.1596    2.5469 C.3       1 <0>        -0.1073
      4 C4          2.1880    0.0039    1.2197 C.3       1 <0>         0.1008
      5 C5          1.9049    1.4871    0.9731 C.3       1 <0>        -0.1461
      6 C6          3.2265    2.2558    0.9153 C.3       1 <0>        -0.1202
      7 C7          3.0492   -0.5471    0.0814 C.3       1 <0>         0.1254
      8 N1          3.2233   -1.9913    0.2558 N.am      1 <0>        -0.6878
      9 C8          4.0335   -2.6775   -0.5743 C.2       1 <0>         0.4970
     10 O1          4.6185   -2.0994   -1.4657 O.2       1 <0>        -0.5321
     11 C9          4.2126   -4.1630   -0.3950 C.3       1 <0>        -0.0320
     12 N2          5.1371   -4.6717   -1.4169 N.4       1 <0>        -0.3687
     13 C10         6.4659   -4.0839   -1.2085 C.3       1 <0>        -0.0164
     14 C11         7.4124   -4.5472   -2.3180 C.3       1 <0>        -0.1385
     15 C12         7.5176   -6.0747   -2.2871 C.3       1 <0>        -0.0858
     16 C13         6.1166   -6.6760   -2.4308 C.3       1 <0>        -0.1478
     17 C14         5.2181   -6.1339   -1.3171 C.3       1 <0>        -0.0040
     18 C15         8.3996   -6.5503   -3.4432 C.3       1 <0>        -0.1425
     19 C16         8.6027   -8.0400   -3.3402 C.2       1 <0>         0.5161
     20 O2          8.0922   -8.6602   -2.4315 O.2       1 <0>        -0.5462
     21 N3          9.3515   -8.6831   -4.2578 N.am      1 <0>        -0.8515
     22 N4          0.9191   -0.7342    1.2752 N.3       1 <0>        -0.5285
     23 C17         0.2105   -0.6612   -0.0109 C.3       1 <0>         0.0084
     24 C18        -1.0735   -1.4908    0.0723 C.3       1 <0>         0.0652
     25 O3         -1.8728   -1.0153    1.1587 O.3       1 <0>        -0.3802
     26 C19        -1.2138   -1.0727    2.4266 C.3       1 <0>         0.0631
     27 C20         0.0688   -0.2389    2.3673 C.3       1 <0>         0.0106
     28 H1          3.3565    2.4849    3.0534 H         1 <0>         0.0660
     29 H2          4.9116    2.6400    2.2014 H         1 <0>         0.0677
     30 H3          4.8667    0.2166    1.6782 H         1 <0>         0.0614
     31 H4          4.7828    0.4926    3.4346 H         1 <0>         0.0697
     32 H5          3.1332   -1.2163    2.7226 H         1 <0>         0.0676
     33 H6          2.3180    0.2329    3.3578 H         1 <0>         0.0744
     34 H7          1.3753    1.6035    0.0276 H         1 <0>         0.0693
     35 H8          1.2914    1.8796    1.7840 H         1 <0>         0.0771
     36 H9          3.0249    3.3125    0.7396 H         1 <0>         0.0697
     37 H10         3.8401    1.8633    0.1044 H         1 <0>         0.0638
     38 H11         2.5585   -0.3529   -0.8722 H         1 <0>         0.0769
     39 H12         4.0240   -0.0595    0.0945 H         1 <0>         0.0939
     40 H13         2.7554   -2.4536    0.9688 H         1 <0>         0.4174
     41 H14         4.6206   -4.3628    0.5959 H         1 <0>         0.1580
     42 H15         3.2481   -4.6603   -0.4978 H         1 <0>         0.1593
     43 H16         6.3889   -2.9968   -1.2277 H         1 <0>         0.1479
     44 H17         6.8562   -4.4027   -0.2420 H         1 <0>         0.1249
     45 H18         7.0232   -4.2287   -3.2851 H         1 <0>         0.0905
     46 H19         8.3989   -4.1112   -2.1605 H         1 <0>         0.1128
     47 H20         7.9545   -6.3908   -1.3398 H         1 <0>         0.0983
     48 H21         5.7004   -6.4017   -3.4001 H         1 <0>         0.0844
     49 H22         6.1768   -7.7616   -2.3538 H         1 <0>         0.1306
     50 H23         5.6349   -6.4089   -0.3483 H         1 <0>         0.1317
     51 H24         4.2198   -6.5602   -1.4163 H         1 <0>         0.1316
     52 H25         7.9151   -6.3144   -4.3907 H         1 <0>         0.1019
     53 H26         9.3655   -6.0477   -3.3940 H         1 <0>         0.1065
     54 H27         9.7598   -8.1871   -4.9846 H         1 <0>         0.4055
     55 H28         9.4822   -9.6420   -4.1915 H         1 <0>         0.4079
     56 H29        -0.0403    0.3767   -0.2298 H         1 <0>         0.0531
     57 H30         0.8488   -1.0565   -0.8011 H         1 <0>         0.0838
     58 H31        -1.6307   -1.3934   -0.8595 H         1 <0>         0.0989
     59 H32        -0.8202   -2.5379    0.2379 H         1 <0>         0.0562
     60 H33        -1.8725   -0.6730    3.1976 H         1 <0>         0.1018
     61 H34        -0.9646   -2.1077    2.6607 H         1 <0>         0.0593
     62 H35         0.6036   -0.3260    3.3131 H         1 <0>         0.0928
     63 H36        -0.1843    0.8058    2.1864 H         1 <0>         0.0534
     64 H37         4.7985   -4.4163   -2.3324 H         1 <0>         0.4279
@<TRIPOS>BOND
     1    1    6 1
     2    1    2 1
     3    1   28 1
     4    1   29 1
     5    2    3 1
     6    2   30 1
     7    2   31 1
     8    3    4 1
     9    3   32 1
    10    3   33 1
    11    4    5 1
    12    4    7 1
    13    4   22 1
    14    5    6 1
    15    5   34 1
    16    5   35 1
    17    6   36 1
    18    6   37 1
    19    7    8 1
    20    7   38 1
    21    7   39 1
    22    8    9 am
    23    8   40 1
    24    9   10 2
    25    9   11 1
    26   11   12 1
    27   11   41 1
    28   11   42 1
    29   12   17 1
    30   12   13 1
    31   12   64 1
    32   13   14 1
    33   13   43 1
    34   13   44 1
    35   14   15 1
    36   14   45 1
    37   14   46 1
    38   15   16 1
    39   15   18 1
    40   15   47 1
    41   16   17 1
    42   16   48 1
    43   16   49 1
    44   17   50 1
    45   17   51 1
    46   18   19 1
    47   18   52 1
    48   18   53 1
    49   19   20 2
    50   19   21 am
    51   21   54 1
    52   21   55 1
    53   22   27 1
    54   22   23 1
    55   23   24 1
    56   23   56 1
    57   23   57 1
    58   24   25 1
    59   24   58 1
    60   24   59 1
    61   25   26 1
    62   26   27 1
    63   26   60 1
    64   26   61 1
    65   27   62 1
    66   27   63 1
@<TRIPOS>MOLECULE
ZINC63280856
   49    52     0     0     0
SMALL
USER_CHARGES

@<TRIPOS>ATOM
      1 C1         -0.0225    1.8097    0.0120 C.3       1 <0>        -0.6741
      2 S1          0.0021   -0.0041    0.0020 S.o2      1 <0>         2.6042
      3 O1          0.8352   -0.4880    1.0465 O.2       1 <0>        -0.9368
      4 O2         -1.3147   -0.5105   -0.1678 O.2       1 <0>        -0.9421
      5 N1          0.7947   -0.4113   -1.3938 N.pl3     1 <0>        -1.1098
      6 C2          2.2072   -0.0612   -1.5629 C.3       1 <0>         0.4130
      7 H1          2.4544    0.8421   -1.0052 H         1 <0>         0.1423
      8 N2          2.5491    0.0847   -2.9841 N.pl3     1 <0>        -0.7254
      9 C3          3.4985   -0.7793   -3.5113 C.ar      1 <0>         0.2103
     10 C4          3.9469   -0.7829   -4.8481 C.ar      1 <0>        -0.1640
     11 C5          4.8914   -1.6754   -5.2820 C.ar      1 <0>        -0.0393
     12 C6          5.4451   -2.6167   -4.4099 C.ar      1 <0>        -0.1775
     13 C7          5.0153   -2.6324   -3.0773 C.ar      1 <0>         0.0268
     14 C8          4.0686   -1.7330   -2.6567 C.ar      1 <0>        -0.1522
     15 S2          3.2975   -1.4581   -1.0761 S.3       1 <0>        -0.0968
     16 C9          6.4617   -3.5749   -4.8839 C.2       1 <0>         0.5757
     17 O3          6.9355   -4.3888   -4.1147 O.2       1 <0>        -0.5286
     18 N3          6.8654   -3.5482   -6.1695 N.am      1 <0>        -0.7349
     19 C10         7.8749   -4.4998   -6.6402 C.3       1 <0>         0.1272
     20 C11         8.1513   -4.2571   -8.1254 C.3       1 <0>        -0.1058
     21 C12         9.1898   -5.2359   -8.6096 C.2       1 <0>         0.0713
     22 C13         8.9671   -6.4217   -9.2209 C.ar      1 <0>        -0.1673
     23 C14         7.7385   -7.1286   -9.6022 C.ar      1 <0>        -0.0122
     24 C15         7.8364   -8.3300  -10.2155 C.ar      1 <0>        -0.1506
     25 C16         9.0788   -8.9158  -10.4950 C.ar      1 <0>         0.0550
     26 C17        10.2508   -8.3275  -10.1752 C.ar      1 <0>        -0.2101
     27 C18        10.2664   -7.0614   -9.5276 C.ar      1 <0>         0.3279
     28 N4         11.2539   -6.3007   -9.1217 N.pl3     1 <0>        -0.5850
     29 C19        10.6920   -5.0881   -8.5163 C.3       1 <0>         0.0602
     30 H2          1.0001    2.1870    0.0043 H         1 <0>         0.1271
     31 H3         -0.5497    2.1708   -0.8711 H         1 <0>         0.1323
     32 H4         -0.5327    2.1613    0.9088 H         1 <0>         0.1382
     33 H5          0.3237   -0.8815   -2.0994 H         1 <0>         0.4263
     34 H6          2.1257    0.7615   -3.5350 H         1 <0>         0.4190
     35 H7          3.5369   -0.0669   -5.5449 H         1 <0>         0.1330
     36 H8          5.2129   -1.6511   -6.3127 H         1 <0>         0.1297
     37 H9          5.4276   -3.3498   -2.3832 H         1 <0>         0.1458
     38 H10         6.4874   -2.8989   -6.7831 H         1 <0>         0.4045
     39 H11         8.7953   -4.3636   -6.0724 H         1 <0>         0.0794
     40 H12         7.5088   -5.5168   -6.5003 H         1 <0>         0.0802
     41 H13         7.2309   -4.3933   -8.6932 H         1 <0>         0.1164
     42 H14         8.5174   -3.2400   -8.2653 H         1 <0>         0.1195
     43 H15         6.7708   -6.6959   -9.3958 H         1 <0>         0.1609
     44 H16         6.9337   -8.8518  -10.4970 H         1 <0>         0.1581
     45 H17         9.0991   -9.8774  -10.9861 H         1 <0>         0.1611
     46 H18        11.1818   -8.8210  -10.4122 H         1 <0>         0.1607
     47 H19        11.0176   -4.2054   -9.0666 H         1 <0>         0.1752
     48 H20        10.9983   -5.0151   -7.4728 H         1 <0>         0.1750
     49 H21        12.1983   -6.5037   -9.2104 H         1 <0>         0.4562
@<TRIPOS>BOND
     1    1    2 1
     2    1   30 1
     3    1   31 1
     4    1   32 1
     5    2    3 2
     6    2    4 2
     7    2    5 1
     8    5    6 1
     9    5   33 1
    10    6    7 1
    11    6   15 1
    12    6    8 1
    13    8    9 1
    14    8   34 1
    15    9   14 ar
    16    9   10 ar
    17   10   11 ar
    18   10   35 1
    19   11   12 ar
    20   11   36 1
    21   12   13 ar
    22   12   16 1
    23   13   14 ar
    24   13   37 1
    25   14   15 1
    26   16   17 2
    27   16   18 am
    28   18   19 1
    29   18   38 1
    30   19   20 1
    31   19   39 1
    32   19   40 1
    33   20   21 1
    34   20   41 1
    35   20   42 1
    36   21   29 1
    37   21   22 2
    38   22   27 ar
    39   22   23 ar
    40   23   24 ar
    41   23   43 1
    42   24   25 ar
    43   24   44 1
    44   25   26 ar
    45   25   45 1
    46   26   27 ar
    47   26   46 1
    48   27   28 2
    49   28   29 1
    50   28   49 1
    51   29   47 1
    52   29   48 1
@<TRIPOS>MOLECULE
ZINC65601422
   59    60     0     0     0
SMALL
USER_CHARGES

@<TRIPOS>ATOM
      1 C1          1.3365    1.7570   -0.8068 C.3       1 <0>        -0.1545
      2 C2          1.6182    0.2668   -1.0090 C.3       1 <0>        -0.1035
      3 C3          2.5752   -0.2259    0.0803 C.3       1 <0>        -0.1420
      4 C4          2.7898   -1.7324   -0.0802 C.3       1 <0>        -0.0180
      5 N1          1.5041   -2.4295    0.0442 N.4       1 <0>        -0.3842
      6 C5          0.6058   -2.0150   -1.0401 C.3       1 <0>        -0.0104
      7 C6          0.3071   -0.5193   -0.9165 C.3       1 <0>        -0.1439
      8 C7          1.7255   -3.8797   -0.0328 C.3       1 <0>         0.0148
      9 C8          2.4347   -4.2183   -1.3454 C.3       1 <0>        -0.1818
     10 C9          2.5930   -4.3264    1.1457 C.3       1 <0>         0.0932
     11 N2          1.9669   -3.9036    2.4009 N.am      1 <0>        -0.7265
     12 C10         2.6061   -4.0974    3.5715 C.2       1 <0>         0.5202
     13 O1          3.7003   -4.6221    3.5858 O.2       1 <0>        -0.4850
     14 C11         1.9678   -3.6664    4.8512 C.2       1 <0>         0.5080
     15 O2          0.8735   -3.1417    4.8369 O.2       1 <0>        -0.4946
     16 N3          2.6070   -3.8602    6.0218 N.am      1 <0>        -0.6346
     17 C12         2.0593   -3.3682    7.2041 C.ar      1 <0>         0.1508
     18 C13         0.6790   -3.3686    7.3829 C.ar      1 <0>        -0.1229
     19 C14         0.1347   -2.8830    8.5503 C.ar      1 <0>        -0.0393
     20 C15         0.9695   -2.3896    9.5567 C.ar      1 <0>        -0.1366
     21 C16         2.3551   -2.3910    9.3743 C.ar      1 <0>        -0.0655
     22 C17         2.8936   -2.8825    8.2066 C.ar      1 <0>        -0.1389
     23 C18         0.3891   -1.8678   10.8094 C.2       1 <0>         0.5561
     24 O3         -0.8166   -1.8668   10.9667 O.2       1 <0>        -0.5310
     25 N4          1.1955   -1.3923   11.7790 N.am      1 <0>        -0.7225
     26 C19         0.6193   -0.8744   13.0224 C.3       1 <0>         0.1459
     27 C20         1.7260   -0.4081   13.9328 C.2       1 <0>        -0.1858
     28 C21         1.7184    0.8160   14.3995 C.2       1 <0>        -0.1568
     29 H1          0.8889    1.9122    0.1749 H         1 <0>         0.0623
     30 H2          2.2703    2.3155   -0.8727 H         1 <0>         0.0677
     31 H3          0.6498    2.1049   -1.5784 H         1 <0>         0.0682
     32 H4          2.0684    0.1107   -1.9893 H         1 <0>         0.0895
     33 H5          3.5307    0.2900   -0.0142 H         1 <0>         0.1136
     34 H6          2.1461   -0.0219    1.0613 H         1 <0>         0.0876
     35 H7          3.2191   -1.9353   -1.0614 H         1 <0>         0.1359
     36 H8          3.4709   -2.0865    0.6936 H         1 <0>         0.1290
     37 H9          1.0817   -2.2118   -2.0008 H         1 <0>         0.1335
     38 H10        -0.3255   -2.5776   -0.9750 H         1 <0>         0.1325
     39 H11        -0.1690   -0.3214    0.0438 H         1 <0>         0.0889
     40 H12        -0.3585   -0.2131   -1.7236 H         1 <0>         0.1147
     41 H13         0.7664   -4.3962    0.0058 H         1 <0>         0.1490
     42 H14         3.3938   -3.7018   -1.3840 H         1 <0>         0.0876
     43 H15         2.5990   -5.2944   -1.4025 H         1 <0>         0.1117
     44 H16         1.8167   -3.9001   -2.1850 H         1 <0>         0.0914
     45 H17         2.6891   -5.4121    1.1352 H         1 <0>         0.1210
     46 H18         3.5809   -3.8734    1.0618 H         1 <0>         0.1046
     47 H19         1.0923   -3.4843    2.3894 H         1 <0>         0.4095
     48 H20         3.4484   -4.3423    6.0409 H         1 <0>         0.4275
     49 H21         0.0344   -3.7499    6.6049 H         1 <0>         0.1455
     50 H22        -0.9365   -2.8829    8.6882 H         1 <0>         0.1452
     51 H23         3.0028   -2.0101   10.1500 H         1 <0>         0.1357
     52 H24         3.9645   -2.8876    8.0667 H         1 <0>         0.1381
     53 H25         2.1573   -1.3931   11.6536 H         1 <0>         0.4011
     54 H26        -0.0415   -0.0377   12.7958 H         1 <0>         0.0752
     55 H27         0.0511   -1.6629   13.5157 H         1 <0>         0.0801
     56 H28         2.5255   -1.0830   14.2006 H         1 <0>         0.1170
     57 H29         2.5115    1.1502   15.0519 H         1 <0>         0.1065
     58 H30         0.9189    1.4909   14.1317 H         1 <0>         0.1017
     59 H31         1.0840   -2.2021    0.9330 H         1 <0>         0.4175
@<TRIPOS>BOND
     1    1    2 1
     2    1   29 1
     3    1   30 1
     4    1   31 1
     5    2    7 1
     6    2    3 1
     7    2   32 1
     8    3    4 1
     9    3   33 1
    10    3   34 1
    11    4    5 1
    12    4   35 1
    13    4   36 1
    14    5    6 1
    15    5    8 1
    16    5   59 1
    17    6    7 1
    18    6   37 1
    19    6   38 1
    20    7   39 1
    21    7   40 1
    22    8    9 1
    23    8   10 1
    24    8   41 1
    25    9   42 1
    26    9   43 1
    27    9   44 1
    28   10   11 1
    29   10   45 1
    30   10   46 1
    31   11   12 am
    32   11   47 1
    33   12   13 2
    34   12   14 1
    35   14   15 2
    36   14   16 am
    37   16   17 1
    38   16   48 1
    39   17   22 ar
    40   17   18 ar
    41   18   19 ar
    42   18   49 1
    43   19   20 ar
    44   19   50 1
    45   20   21 ar
    46   20   23 1
    47   21   22 ar
    48   21   51 1
    49   22   52 1
    50   23   24 2
    51   23   25 am
    52   25   26 1
    53   25   53 1
    54   26   27 1
    55   26   54 1
    56   26   55 1
    57   27   28 2
    58   27   56 1
    59   28   57 1
    60   28   58 1
