@<TRIPOS>MOLECULE
3BIZ-61E
 58 62 0 0 0
SMALL
SF_CHARGES


@<TRIPOS>ATOM
1    C         8.8180   52.8040   16.3630  C.3        1 SUBUNIT      0.1385
2    N         7.3910   53.1050   16.6580  N.4        1 SUBUNIT     -0.3187
3    C         6.6600   53.0310   15.3300  C.3        1 SUBUNIT      0.1385
4    C         7.2250   54.3760   17.4880  C.3        1 SUBUNIT      0.1655
5    C         5.7360   54.9230   17.5250  C.3        1 SUBUNIT     -0.0630
6    C         4.9990   54.7790   18.9030  C.3        1 SUBUNIT      0.2213
7    O         6.0200   54.9230   19.9780  O.3        1 SUBUNIT     -0.3857
8    C         5.6410   54.7330   21.2950  C.2        1 SUBUNIT      0.1991
9    C         4.3190   54.3370   21.6710  C.2        1 SUBUNIT     -0.0868
10   C         6.6470   54.9810   22.2580  C.2        1 SUBUNIT      0.5172
11   O         7.8060   55.2810   21.8760  O.2        1 SUBUNIT     -0.5117
12   C         6.3320   54.7730   23.6350  C.2        1 SUBUNIT     -0.0903
13   C         5.0130   54.4440   24.0230  C.2        1 SUBUNIT      0.0145
14   C         4.0090   54.1990   23.0410  C.2        1 SUBUNIT      0.2371
15   N         2.8850   53.8590   23.6860  N.pl3      1 SUBUNIT     -0.0783
16   C         1.5330   53.5030   23.0800  C.3        1 SUBUNIT      0.1399
17   C         3.0740   53.8980   24.9910  C.2        1 SUBUNIT      0.1563
18   C         2.1700   53.5410   26.0180  C.2        1 SUBUNIT     -0.0995
19   C         4.4050   54.2540   25.2550  C.2        1 SUBUNIT     -0.0120
20   C         4.8620   54.3120   26.6110  C.2        1 SUBUNIT     -0.0317
21   C         6.0680   54.6060   27.2800  C.2        1 SUBUNIT      0.6824
22   O         7.0980   55.0050   26.7460  O.2        1 SUBUNIT     -0.5318
23   N         5.9600   54.5150   28.6380  N.pl3      1 SUBUNIT     -0.5469
24   C         4.7280   54.1260   28.8740  C.2        1 SUBUNIT      0.6803
25   O         4.3170   53.9280   30.0150  O.2        1 SUBUNIT     -0.5335
26   C         3.9480   53.9930   27.6430  C.2        1 SUBUNIT     -0.0340
27   C         2.5960   53.6380   27.3420  C.2        1 SUBUNIT     -0.0024
28   C         1.6380   53.3760   28.3580  C.2        1 SUBUNIT     -0.0045
29   C         0.9860   52.1030   28.4200  C.2        1 SUBUNIT     -0.0928
30   C         0.0270   51.9030   29.4410  C.2        1 SUBUNIT     -0.0876
31   C        -0.2610   52.8740   30.4300  C.2        1 SUBUNIT     -0.0874
32   C         0.3500   54.1510   30.3780  C.2        1 SUBUNIT     -0.0937
33   C         1.2640   54.4180   29.3030  C.2        1 SUBUNIT      0.0245
34   Cl        1.8980   56.0290   29.3670  Cl         1 SUBUNIT     -0.0767
35   H         8.9259   51.8071   15.9230  H          1 SUBUNIT      0.0612
36   H         9.4226   52.8365   17.2754  H          1 SUBUNIT      0.0612
37   H         9.2345   53.5303   15.6572  H          1 SUBUNIT      0.0612
38   H         6.9749   52.4210   17.2704  H          1 SUBUNIT      0.3353
39   H         7.0642   53.7586   14.6185  H          1 SUBUNIT      0.0612
40   H         5.5930   53.2416   15.4571  H          1 SUBUNIT      0.0612
41   H         6.7557   52.0354   14.8843  H          1 SUBUNIT      0.0612
42   H         7.5473   54.1541   18.5107  H          1 SUBUNIT      0.0567
43   H         7.8753   55.1453   17.0586  H          1 SUBUNIT      0.0567
44   H         5.7577   55.9869   17.2667  H          1 SUBUNIT      0.0711
45   H         5.1540   54.3767   16.7755  H          1 SUBUNIT      0.0711
46   H         4.2409   55.5610   19.0166  H          1 SUBUNIT      0.0512
47   H         4.5245   53.7955   18.9838  H          1 SUBUNIT      0.0512
48   H         3.5671   54.1455   20.9255  H          1 SUBUNIT      0.1110
49   H         7.0983   54.8659   24.3846  H          1 SUBUNIT      0.1105
50   H         1.1371   54.3347   22.4880  H          1 SUBUNIT      0.0631
51   H         0.8025   53.2681   23.8611  H          1 SUBUNIT      0.0631
52   H         1.6149   52.6311   22.4227  H          1 SUBUNIT      0.0631
53   H         1.1747   53.2015   25.7903  H          1 SUBUNIT      0.1273
54   H         6.6684   54.7035   29.3299  H          1 SUBUNIT      0.3411
55   H         1.2133   51.3209   27.7168  H          1 SUBUNIT      0.1280
56   H        -0.5079   50.9697   29.4667  H          1 SUBUNIT      0.1284
57   H        -0.9475   52.6406   31.2250  H          1 SUBUNIT      0.1288
58   H         0.1312   54.8939   31.1250  H          1 SUBUNIT      0.1293
@<TRIPOS>BOND
     1    1    2 1
     2    2    3 1
     3    2    4 1
     4    4    5 1
     5    5    6 1
     6    6    7 1
     7    7    8 1
     8    8    9 2
     9    8   10 1
    10    9   14 1
    11   10   11 2
    12   10   12 1
    13   12   13 2
    14   13   14 1
    15   13   19 1
    16   14   15 2
    17   15   16 1
    18   15   17 1
    19   17   18 2
    20   17   19 1
    21   18   27 1
    22   19   20 2
    23   20   21 1
    24   20   26 1
    25   21   22 2
    26   21   23 1
    27   23   24 1
    28   24   25 2
    29   24   26 1
    30   26   27 2
    31   27   28 1
    32   28   29 1
    33   28   33 2
    34   29   30 2
    35   30   31 1
    36   31   32 2
    37   32   33 1
    38   33   34 1
    39    1   35 1
    40    1   36 1
    41    1   37 1
    42    2   38 1
    43    3   39 1
    44    3   40 1
    45    3   41 1
    46    4   42 1
    47    4   43 1
    48    5   44 1
    49    5   45 1
    50    6   46 1
    51    6   47 1
    52    9   48 1
    53   12   49 1
    54   16   50 1
    55   16   51 1
    56   16   52 1
    57   18   53 1
    58   23   54 1
    59   29   55 1
    60   30   56 1
    61   31   57 1
    62   32   58 1
