@<TRIPOS>MOLECULE
CHEMBL264679
   41    42     0     0     0
SMALL
USER_CHARGES

@<TRIPOS>ATOM
      1 C1         -0.7362    1.4348   -0.3534 C.3       1 <0>        -0.1545
      2 C2         -0.6006   -0.0884   -0.3061 C.3       1 <0>        -0.1260
      3 C3          0.1811   -0.5692   -1.5303 C.3       1 <0>        -0.1212
      4 C4          0.3166   -2.0924   -1.4829 C.3       1 <0>        -0.1211
      5 C5          1.0984   -2.5732   -2.7071 C.3       1 <0>        -0.1140
      6 C6          1.2339   -4.0964   -2.6598 C.3       1 <0>        -0.0828
      7 C7          2.0039   -4.5700   -3.8656 C.ar      1 <0>        -0.0587
      8 C8          1.3320   -4.8915   -5.0304 C.ar      1 <0>        -0.1143
      9 C9          2.0337   -5.3263   -6.1392 C.ar      1 <0>        -0.0975
     10 C10         3.4138   -5.4408   -6.0848 C.ar      1 <0>         0.0639
     11 C11         4.0900   -5.1171   -4.9122 C.ar      1 <0>         0.1160
     12 C12         3.3809   -4.6765   -3.8063 C.ar      1 <0>        -0.1344
     13 O1          5.4441   -5.2277   -4.8538 O.3       1 <0>        -0.4912
     14 O2          4.1055   -5.8688   -7.1745 O.3       1 <0>        -0.2459
     15 C13         4.4002   -7.1900   -7.2632 C.ar      1 <0>         0.3205
     16 C14         5.1431   -7.6586   -8.3398 C.ar      1 <0>        -0.1865
     17 C15         5.4373   -9.0084   -8.4181 C.ar      1 <0>        -0.0419
     18 C16         4.9757   -9.8462   -7.4119 C.ar      1 <0>        -0.2081
     19 C17         4.2428   -9.3118   -6.3712 C.ar      1 <0>         0.1389
     20 N1          3.9823   -8.0191   -6.3211 N.ar      1 <0>        -0.5246
     21 H1          0.2552    1.8880   -0.3524 H         1 <0>         0.0533
     22 H2         -1.2671    1.7243   -1.2603 H         1 <0>         0.0534
     23 H3         -1.2931    1.7773    0.5187 H         1 <0>         0.0536
     24 H4         -0.0697   -0.3779    0.6008 H         1 <0>         0.0605
     25 H5         -1.5920   -0.5416   -0.3071 H         1 <0>         0.0606
     26 H6         -0.3498   -0.2797   -2.4371 H         1 <0>         0.0613
     27 H7          1.1724   -0.1160   -1.5293 H         1 <0>         0.0610
     28 H8          0.8476   -2.3819   -0.5761 H         1 <0>         0.0625
     29 H9         -0.6747   -2.5456   -1.4839 H         1 <0>         0.0628
     30 H10         0.5675   -2.2837   -3.6140 H         1 <0>         0.0646
     31 H11         2.0897   -2.1200   -2.7061 H         1 <0>         0.0636
     32 H12         1.7649   -4.3859   -1.7529 H         1 <0>         0.0751
     33 H13         0.2426   -4.5496   -2.6608 H         1 <0>         0.0765
     34 H14         0.2566   -4.8030   -5.0739 H         1 <0>         0.1319
     35 H15         1.5063   -5.5771   -7.0477 H         1 <0>         0.1317
     36 H16         3.9037   -4.4201   -2.8966 H         1 <0>         0.1342
     37 H17         5.9159   -4.4246   -5.1137 H         1 <0>         0.3923
     38 H18         5.4861   -6.9784   -9.1054 H         1 <0>         0.1423
     39 H19         6.0125   -9.4013   -9.2434 H         1 <0>         0.1434
     40 H20         5.1875  -10.9048   -7.4431 H         1 <0>         0.1391
     41 H21         3.8811   -9.9593   -5.5861 H         1 <0>         0.1595
@<TRIPOS>BOND
     1    1    2 1
     2    1   21 1
     3    1   22 1
     4    1   23 1
     5    2    3 1
     6    2   24 1
     7    2   25 1
     8    3    4 1
     9    3   26 1
    10    3   27 1
    11    4    5 1
    12    4   28 1
    13    4   29 1
    14    5    6 1
    15    5   30 1
    16    5   31 1
    17    6    7 1
    18    6   32 1
    19    6   33 1
    20    7   12 ar
    21    7    8 ar
    22    8    9 ar
    23    8   34 1
    24    9   10 ar
    25    9   35 1
    26   10   11 ar
    27   10   14 1
    28   11   12 ar
    29   11   13 1
    30   12   36 1
    31   13   37 1
    32   14   15 1
    33   15   20 ar
    34   15   16 ar
    35   16   17 ar
    36   16   38 1
    37   17   18 ar
    38   17   39 1
    39   18   19 ar
    40   18   40 1
    41   19   20 ar
    42   19   41 1
@<TRIPOS>MOLECULE
CHEMBL424724
   56    59     0     0     0
SMALL
USER_CHARGES

@<TRIPOS>ATOM
      1 C1          0.4836    3.0162    3.1770 C.ar      1 <0>        -0.1231
      2 C2          1.6718    3.3863    2.5753 C.ar      1 <0>        -0.1176
      3 C3          2.3958    2.4604    1.8476 C.ar      1 <0>        -0.1139
      4 C4          1.9319    1.1643    1.7221 C.ar      1 <0>        -0.0778
      5 C5          0.7441    0.7940    2.3246 C.ar      1 <0>        -0.1145
      6 C6          0.0194    1.7202    3.0511 C.ar      1 <0>        -0.1181
      7 C7          2.7206    0.1552    0.9280 C.3       1 <0>        -0.0422
      8 C8          3.6944   -0.5493    1.8372 C.ar      1 <0>        -0.0563
      9 C9          4.9652   -0.0351    2.0195 C.ar      1 <0>        -0.1259
     10 C10         5.8614   -0.6782    2.8531 C.ar      1 <0>        -0.0968
     11 C11         5.4897   -1.8369    3.5067 C.ar      1 <0>        -0.1226
     12 C12         4.2145   -2.3557    3.3258 C.ar      1 <0>         0.1456
     13 C13         3.3148   -1.7044    2.4918 C.ar      1 <0>        -0.1377
     14 N1          3.8350   -3.5296    3.9861 N.am      1 <0>        -0.6698
     15 C14         4.3229   -3.8006    5.2128 C.2       1 <0>         0.5273
     16 O1          5.0141   -2.9842    5.7845 O.2       1 <0>        -0.5084
     17 C15         4.0097   -5.1179    5.8742 C.3       1 <0>        -0.1235
     18 C16         2.5082   -5.2149    6.2310 C.3       1 <0>        -0.1478
     19 C17         2.4879   -5.9472    7.5546 C.2       1 <0>         0.5213
     20 O2          1.5096   -6.4715    8.0434 O.2       1 <0>        -0.5198
     21 N2          3.7119   -5.9325    8.1098 N.am      1 <0>        -0.6155
     22 C18         4.6709   -5.2081    7.2675 C.3       1 <0>         0.1165
     23 C19         4.0459   -6.5592    9.3913 C.3       1 <0>         0.1616
     24 C20         3.7613   -8.0605    9.3143 C.3       1 <0>        -0.1335
     25 C21         4.1101   -8.7150   10.6525 C.3       1 <0>        -0.1149
     26 C22         3.2610   -8.0912   11.7619 C.3       1 <0>        -0.1232
     27 C23         3.5455   -6.5899   11.8389 C.3       1 <0>        -0.1149
     28 C24         3.1968   -5.9354   10.5007 C.3       1 <0>        -0.1348
     29 H1         -0.0797    3.7384    3.7493 H         1 <0>         0.1211
     30 H2          2.0343    4.3989    2.6733 H         1 <0>         0.1220
     31 H3          3.3238    2.7498    1.3769 H         1 <0>         0.1211
     32 H4          0.3814   -0.2185    2.2263 H         1 <0>         0.1194
     33 H5         -0.9087    1.4310    3.5215 H         1 <0>         0.1214
     34 H6          2.0399   -0.5744    0.4895 H         1 <0>         0.0833
     35 H7          3.2676    0.6645    0.1346 H         1 <0>         0.0852
     36 H8          5.2584    0.8705    1.5093 H         1 <0>         0.1231
     37 H9          6.8532   -0.2743    2.9931 H         1 <0>         0.1269
     38 H10         6.1903   -2.3390    4.1575 H         1 <0>         0.1335
     39 H11         2.3209   -2.1032    2.3523 H         1 <0>         0.1247
     40 H12         3.2207   -4.1483    3.5609 H         1 <0>         0.4128
     41 H13         4.3157   -5.9518    5.2425 H         1 <0>         0.1236
     42 H14         2.0767   -4.2197    6.3389 H         1 <0>         0.1089
     43 H15         1.9717   -5.7841    5.4718 H         1 <0>         0.1125
     44 H16         5.6093   -5.7591    7.2047 H         1 <0>         0.0871
     45 H17         4.8451   -4.2093    7.6676 H         1 <0>         0.0933
     46 H18         5.1020   -6.4003    9.6091 H         1 <0>         0.0890
     47 H19         2.7052   -8.2195    9.0964 H         1 <0>         0.0791
     48 H20         4.3663   -8.5049    8.5239 H         1 <0>         0.0627
     49 H21         3.9074   -9.7846   10.5977 H         1 <0>         0.0664
     50 H22         5.1662   -8.5561   10.8704 H         1 <0>         0.0627
     51 H23         2.2049   -8.2501   11.5440 H         1 <0>         0.0646
     52 H24         3.5094   -8.5575   12.7153 H         1 <0>         0.0640
     53 H25         2.9406   -6.1455   12.6293 H         1 <0>         0.0664
     54 H26         4.6016   -6.4309   12.0568 H         1 <0>         0.0628
     55 H27         3.3995   -4.8658   10.5555 H         1 <0>         0.0633
     56 H28         2.1407   -6.0943   10.2828 H         1 <0>         0.0793
@<TRIPOS>BOND
     1    1    6 ar
     2    1    2 ar
     3    1   29 1
     4    2    3 ar
     5    2   30 1
     6    3    4 ar
     7    3   31 1
     8    4    5 ar
     9    4    7 1
    10    5    6 ar
    11    5   32 1
    12    6   33 1
    13    7    8 1
    14    7   34 1
    15    7   35 1
    16    8   13 ar
    17    8    9 ar
    18    9   10 ar
    19    9   36 1
    20   10   11 ar
    21   10   37 1
    22   11   12 ar
    23   11   38 1
    24   12   13 ar
    25   12   14 1
    26   13   39 1
    27   14   15 am
    28   14   40 1
    29   15   16 2
    30   15   17 1
    31   17   22 1
    32   17   18 1
    33   17   41 1
    34   18   19 1
    35   18   42 1
    36   18   43 1
    37   19   20 2
    38   19   21 am
    39   21   22 1
    40   21   23 1
    41   22   44 1
    42   22   45 1
    43   23   28 1
    44   23   24 1
    45   23   46 1
    46   24   25 1
    47   24   47 1
    48   24   48 1
    49   25   26 1
    50   25   49 1
    51   25   50 1
    52   26   27 1
    53   26   51 1
    54   26   52 1
    55   27   28 1
    56   27   53 1
    57   27   54 1
    58   28   55 1
    59   28   56 1
@<TRIPOS>MOLECULE
CHEMBL424724__1
   56    59     0     0     0
SMALL
USER_CHARGES

@<TRIPOS>ATOM
      1 C1          0.4840    3.0163    3.1769 C.ar      1 <0>        -0.1233
      2 C2          1.6722    3.3864    2.5751 C.ar      1 <0>        -0.1176
      3 C3          2.3961    2.4604    1.8475 C.ar      1 <0>        -0.1137
      4 C4          1.9321    1.1644    1.7220 C.ar      1 <0>        -0.0773
      5 C5          0.7443    0.7941    2.3245 C.ar      1 <0>        -0.1145
      6 C6          0.0197    1.7204    3.0510 C.ar      1 <0>        -0.1184
      7 C7          2.7208    0.1552    0.9279 C.3       1 <0>        -0.0420
      8 C8          3.6945   -0.5493    1.8371 C.ar      1 <0>        -0.0567
      9 C9          4.9654   -0.0352    2.0194 C.ar      1 <0>        -0.1260
     10 C10         5.8615   -0.6783    2.8530 C.ar      1 <0>        -0.0966
     11 C11         5.4898   -1.8370    3.5067 C.ar      1 <0>        -0.1217
     12 C12         4.2146   -2.3558    3.3258 C.ar      1 <0>         0.1468
     13 C13         3.3149   -1.7044    2.4917 C.ar      1 <0>        -0.1380
     14 N1          3.8350   -3.5296    3.9861 N.am      1 <0>        -0.6713
     15 C14         4.3229   -3.8006    5.2128 C.2       1 <0>         0.5210
     16 O1          5.0141   -2.9842    5.7845 O.2       1 <0>        -0.5052
     17 C15         4.0097   -5.1179    5.8742 C.3       1 <0>        -0.1253
     18 C16         4.6895   -6.2881    5.1263 C.3       1 <0>        -0.1475
     19 C17         6.0032   -6.4789    5.8518 C.2       1 <0>         0.5170
     20 O2          6.9515   -7.0997    5.4201 O.2       1 <0>        -0.5216
     21 N2          5.9668   -5.8598    7.0444 N.am      1 <0>        -0.6105
     22 C18         4.6709   -5.2081    7.2675 C.3       1 <0>         0.1157
     23 C19         7.0780   -5.8383    7.9989 C.3       1 <0>         0.1640
     24 C20         8.2966   -5.1805    7.3483 C.3       1 <0>        -0.1334
     25 C21         9.4571   -5.1580    8.3451 C.3       1 <0>        -0.1146
     26 C22         9.8075   -6.5907    8.7522 C.3       1 <0>        -0.1229
     27 C23         8.5889   -7.2485    9.4028 C.3       1 <0>        -0.1146
     28 C24         7.4284   -7.2709    8.4060 C.3       1 <0>        -0.1335
     29 H1         -0.0794    3.7386    3.7491 H         1 <0>         0.1211
     30 H2          2.0347    4.3990    2.6731 H         1 <0>         0.1220
     31 H3          3.3241    2.7497    1.3767 H         1 <0>         0.1211
     32 H4          0.3816   -0.2184    2.2262 H         1 <0>         0.1193
     33 H5         -0.9085    1.4312    3.5214 H         1 <0>         0.1213
     34 H6          2.0400   -0.5744    0.4894 H         1 <0>         0.0832
     35 H7          3.2678    0.6645    0.1345 H         1 <0>         0.0851
     36 H8          5.2586    0.8704    1.5092 H         1 <0>         0.1230
     37 H9          6.8534   -0.2745    2.9930 H         1 <0>         0.1263
     38 H10         6.1903   -2.3391    4.1574 H         1 <0>         0.1317
     39 H11         2.3210   -2.1031    2.3522 H         1 <0>         0.1245
     40 H12         3.2207   -4.1483    3.5609 H         1 <0>         0.4121
     41 H13         2.9327   -5.2713    5.9429 H         1 <0>         0.1295
     42 H14         4.0811   -7.1899    5.1954 H         1 <0>         0.1197
     43 H15         4.8646   -6.0239    4.0834 H         1 <0>         0.1051
     44 H16         4.8167   -4.2102    7.6811 H         1 <0>         0.0978
     45 H17         4.0569   -5.8092    7.9382 H         1 <0>         0.0840
     46 H18         6.7870   -5.2703    8.8826 H         1 <0>         0.0878
     47 H19         8.5876   -5.7484    6.4646 H         1 <0>         0.0768
     48 H20         8.0469   -4.1598    7.0583 H         1 <0>         0.0649
     49 H21        10.3252   -4.6894    7.8816 H         1 <0>         0.0656
     50 H22         9.1661   -4.5901    9.2288 H         1 <0>         0.0624
     51 H23        10.0984   -7.1586    7.8685 H         1 <0>         0.0641
     52 H24        10.6342   -6.5747    9.4623 H         1 <0>         0.0635
     53 H25         8.8385   -8.2691    9.6928 H         1 <0>         0.0659
     54 H26         8.2979   -6.6805   10.2865 H         1 <0>         0.0624
     55 H27         6.5603   -7.7396    8.8695 H         1 <0>         0.0623
     56 H28         7.7194   -7.8389    7.5223 H         1 <0>         0.0789
@<TRIPOS>BOND
     1    1    6 ar
     2    1    2 ar
     3    1   29 1
     4    2    3 ar
     5    2   30 1
     6    3    4 ar
     7    3   31 1
     8    4    5 ar
     9    4    7 1
    10    5    6 ar
    11    5   32 1
    12    6   33 1
    13    7    8 1
    14    7   34 1
    15    7   35 1
    16    8   13 ar
    17    8    9 ar
    18    9   10 ar
    19    9   36 1
    20   10   11 ar
    21   10   37 1
    22   11   12 ar
    23   11   38 1
    24   12   13 ar
    25   12   14 1
    26   13   39 1
    27   14   15 am
    28   14   40 1
    29   15   16 2
    30   15   17 1
    31   17   22 1
    32   17   18 1
    33   17   41 1
    34   18   19 1
    35   18   42 1
    36   18   43 1
    37   19   20 2
    38   19   21 am
    39   21   22 1
    40   21   23 1
    41   22   44 1
    42   22   45 1
    43   23   28 1
    44   23   24 1
    45   23   46 1
    46   24   25 1
    47   24   47 1
    48   24   48 1
    49   25   26 1
    50   25   49 1
    51   25   50 1
    52   26   27 1
    53   26   51 1
    54   26   52 1
    55   27   28 1
    56   27   53 1
    57   27   54 1
    58   28   55 1
    59   28   56 1
@<TRIPOS>MOLECULE
CHEMBL258933
   48    49     0     0     0
SMALL
USER_CHARGES

@<TRIPOS>ATOM
      1 C1          0.0207    1.5341   -0.0046 C.3       1 <0>        -0.1547
      2 C2          0.0129    0.0041    0.0024 C.3       1 <0>        -0.1260
      3 C3          0.7611   -0.5041    1.2364 C.3       1 <0>        -0.1213
      4 C4          0.7532   -2.0340    1.2434 C.3       1 <0>        -0.1210
      5 C5          1.5014   -2.5422    2.4775 C.3       1 <0>        -0.1144
      6 C6          1.4936   -4.0722    2.4845 C.3       1 <0>        -0.0838
      7 C7          2.2305   -4.5728    3.7000 C.ar      1 <0>        -0.0531
      8 C8          3.5919   -4.8045    3.6343 C.ar      1 <0>        -0.1146
      9 C9          4.2725   -5.2636    4.7464 C.ar      1 <0>        -0.0900
     10 C10         3.5902   -5.4923    5.9308 C.ar      1 <0>         0.0609
     11 C11         2.2199   -5.2586    5.9970 C.ar      1 <0>         0.1213
     12 C12         1.5447   -4.7937    4.8797 C.ar      1 <0>        -0.1347
     13 O1          1.5458   -5.4818    7.1567 O.3       1 <0>        -0.4917
     14 O2          4.2581   -5.9444    7.0257 O.3       1 <0>        -0.2208
     15 C13         4.2080   -7.2701    7.2986 C.ar      1 <0>         0.5768
     16 N1          3.6155   -8.0828    6.4391 N.ar      1 <0>        -0.6213
     17 C14         3.5473   -9.3894    6.6736 C.ar      1 <0>         0.4221
     18 C15         4.1087   -9.8976    7.8395 C.ar      1 <0>        -0.2983
     19 C16         4.7228   -9.0128    8.7186 C.ar      1 <0>         0.4221
     20 N2          4.7576   -7.7192    8.4152 N.ar      1 <0>        -0.5935
     21 O3          5.2829   -9.4640    9.8674 O.3       1 <0>        -0.2892
     22 C17         5.8941   -8.4910   10.7169 C.3       1 <0>         0.0349
     23 O4          2.9381  -10.2151    5.7882 O.3       1 <0>        -0.2912
     24 C18         2.3860   -9.6145    4.6149 C.3       1 <0>         0.0380
     25 H1          1.0500    1.8920   -0.0307 H         1 <0>         0.0535
     26 H2         -0.5123    1.8961   -0.8838 H         1 <0>         0.0537
     27 H3         -0.4699    1.9040    0.8956 H         1 <0>         0.0534
     28 H4         -1.0163   -0.3538    0.0285 H         1 <0>         0.0605
     29 H5          0.5036   -0.3659   -0.8979 H         1 <0>         0.0607
     30 H6          1.7903   -0.1461    1.2103 H         1 <0>         0.0614
     31 H7          0.2704   -0.1341    2.1367 H         1 <0>         0.0611
     32 H8         -0.2760   -2.3920    1.2695 H         1 <0>         0.0626
     33 H9          1.2439   -2.4040    0.3432 H         1 <0>         0.0630
     34 H10         2.5306   -2.1843    2.4514 H         1 <0>         0.0652
     35 H11         1.0108   -2.1723    3.3778 H         1 <0>         0.0640
     36 H12         0.4643   -4.4302    2.5106 H         1 <0>         0.0760
     37 H13         1.9842   -4.4422    1.5842 H         1 <0>         0.0776
     38 H14         4.1248   -4.6267    2.7119 H         1 <0>         0.1346
     39 H15         5.3359   -5.4445    4.6922 H         1 <0>         0.1350
     40 H16         0.4820   -4.6076    4.9296 H         1 <0>         0.1363
     41 H17         1.5050   -4.7132    7.7421 H         1 <0>         0.3955
     42 H18         4.0685  -10.9547    8.0572 H         1 <0>         0.1634
     43 H19         6.3022   -8.9841   11.5992 H         1 <0>         0.1045
     44 H20         6.6974   -7.9901   10.1765 H         1 <0>         0.0657
     45 H21         5.1491   -7.7567   11.0230 H         1 <0>         0.0656
     46 H22         1.6297   -8.8840    4.9022 H         1 <0>         0.0639
     47 H23         3.1775   -9.1169    4.0546 H         1 <0>         0.0630
     48 H24         1.9295  -10.3846    3.9930 H         1 <0>         0.1034
@<TRIPOS>BOND
     1    1    2 1
     2    1   25 1
     3    1   26 1
     4    1   27 1
     5    2    3 1
     6    2   28 1
     7    2   29 1
     8    3    4 1
     9    3   30 1
    10    3   31 1
    11    4    5 1
    12    4   32 1
    13    4   33 1
    14    5    6 1
    15    5   34 1
    16    5   35 1
    17    6    7 1
    18    6   36 1
    19    6   37 1
    20    7   12 ar
    21    7    8 ar
    22    8    9 ar
    23    8   38 1
    24    9   10 ar
    25    9   39 1
    26   10   11 ar
    27   10   14 1
    28   11   12 ar
    29   11   13 1
    30   12   40 1
    31   13   41 1
    32   14   15 1
    33   15   20 ar
    34   15   16 ar
    35   16   17 ar
    36   17   18 ar
    37   17   23 1
    38   18   19 ar
    39   18   42 1
    40   19   20 ar
    41   19   21 1
    42   21   22 1
    43   22   43 1
    44   22   44 1
    45   22   45 1
    46   23   24 1
    47   24   46 1
    48   24   47 1
    49   24   48 1
@<TRIPOS>MOLECULE
CHEMBL258932
   40    41     0     0     0
SMALL
USER_CHARGES

@<TRIPOS>ATOM
      1 C1          0.0277    1.4375    0.8209 C.3       1 <0>        -0.1546
      2 C2          0.0390   -0.0865    0.6855 C.3       1 <0>        -0.1260
      3 C3         -1.3995   -0.6035    0.6208 C.3       1 <0>        -0.1212
      4 C4         -1.3882   -2.1274    0.4854 C.3       1 <0>        -0.1212
      5 C5         -2.8267   -2.6445    0.4207 C.3       1 <0>        -0.1141
      6 C6         -2.8153   -4.1684    0.2853 C.3       1 <0>        -0.0837
      7 C7         -4.2322   -4.6776    0.2216 C.ar      1 <0>        -0.0551
      8 C8         -4.8982   -5.0115    1.3863 C.ar      1 <0>        -0.1143
      9 C9         -6.1979   -5.4790    1.3333 C.ar      1 <0>        -0.0950
     10 C10        -6.8366   -5.6136    0.1107 C.ar      1 <0>         0.0552
     11 C11        -6.1663   -5.2772   -1.0617 C.ar      1 <0>         0.1183
     12 C12        -4.8651   -4.8045   -1.0009 C.ar      1 <0>        -0.1343
     13 O1         -6.7885   -5.4075   -2.2638 O.3       1 <0>        -0.4920
     14 O2         -8.1150   -6.0738    0.0567 O.3       1 <0>        -0.2361
     15 C13        -8.3059   -7.4010   -0.1500 C.ar      1 <0>         0.2744
     16 C14        -9.5959   -7.9118   -0.2548 C.ar      1 <0>         0.0469
     17 N1         -9.7779   -9.2033   -0.4558 N.ar      1 <0>        -0.4031
     18 C15        -8.7361  -10.0114   -0.5575 C.ar      1 <0>         0.0080
     19 C16        -7.4536   -9.5070   -0.4534 C.ar      1 <0>         0.0948
     20 N2         -7.2641   -8.2130   -0.2579 N.ar      1 <0>        -0.4814
     21 H1          1.0525    1.8058    0.8670 H         1 <0>         0.0537
     22 H2         -0.4773    1.8750   -0.0403 H         1 <0>         0.0534
     23 H3         -0.5004    1.7173    1.7325 H         1 <0>         0.0534
     24 H4          0.5670   -0.3663   -0.2261 H         1 <0>         0.0606
     25 H5          0.5440   -0.5240    1.5467 H         1 <0>         0.0607
     26 H6         -1.9275   -0.3237    1.5324 H         1 <0>         0.0613
     27 H7         -1.9045   -0.1660   -0.2404 H         1 <0>         0.0611
     28 H8         -0.8601   -2.4073   -0.4262 H         1 <0>         0.0627
     29 H9         -0.8832   -2.5650    1.3466 H         1 <0>         0.0630
     30 H10        -3.3547   -2.3646    1.3323 H         1 <0>         0.0649
     31 H11        -3.3316   -2.2069   -0.4405 H         1 <0>         0.0638
     32 H12        -2.2873   -4.4482   -0.6263 H         1 <0>         0.0758
     33 H13        -2.3104   -4.6059    1.1465 H         1 <0>         0.0772
     34 H14        -4.4017   -4.9070    2.3397 H         1 <0>         0.1332
     35 H15        -6.7156   -5.7397    2.2446 H         1 <0>         0.1329
     36 H16        -4.3440   -4.5392   -1.9088 H         1 <0>         0.1355
     37 H17        -7.2690   -4.6171   -2.5456 H         1 <0>         0.3941
     38 H18       -10.4470   -7.2522   -0.1715 H         1 <0>         0.1776
     39 H19        -8.8877  -11.0679   -0.7220 H         1 <0>         0.1753
     40 H20        -6.6050  -10.1699   -0.5362 H         1 <0>         0.1741
@<TRIPOS>BOND
     1    1    2 1
     2    1   21 1
     3    1   22 1
     4    1   23 1
     5    2    3 1
     6    2   24 1
     7    2   25 1
     8    3    4 1
     9    3   26 1
    10    3   27 1
    11    4    5 1
    12    4   28 1
    13    4   29 1
    14    5    6 1
    15    5   30 1
    16    5   31 1
    17    6    7 1
    18    6   32 1
    19    6   33 1
    20    7   12 ar
    21    7    8 ar
    22    8    9 ar
    23    8   34 1
    24    9   10 ar
    25    9   35 1
    26   10   11 ar
    27   10   14 1
    28   11   12 ar
    29   11   13 1
    30   12   36 1
    31   13   37 1
    32   14   15 1
    33   15   20 ar
    34   15   16 ar
    35   16   17 ar
    36   16   38 1
    37   17   18 ar
    38   18   19 ar
    39   18   39 1
    40   19   20 ar
    41   19   40 1
@<TRIPOS>MOLECULE
CHEMBL405655
   41    42     0     0     0
SMALL
USER_CHARGES

@<TRIPOS>ATOM
      1 C1         -1.2239   -0.6051    1.0235 C.3       1 <0>        -0.1545
      2 C2         -0.7828   -2.0594    0.8463 C.3       1 <0>        -0.1261
      3 C3         -0.0766   -2.2175   -0.5017 C.3       1 <0>        -0.1210
      4 C4          0.3645   -3.6717   -0.6790 C.3       1 <0>        -0.1215
      5 C5          1.0708   -3.8298   -2.0270 C.3       1 <0>        -0.1141
      6 C6          1.5119   -5.2841   -2.2043 C.3       1 <0>        -0.0790
      7 C7          2.2075   -5.4397   -3.5320 C.ar      1 <0>        -0.0933
      8 C8          1.4759   -5.7603   -4.6605 C.ar      1 <0>        -0.0857
      9 C9          2.1093   -5.9047   -5.8807 C.ar      1 <0>        -0.1770
     10 C10         3.4807   -5.7276   -5.9748 C.ar      1 <0>         0.0895
     11 C11         4.2169   -5.4044   -4.8388 C.ar      1 <0>         0.0875
     12 C12         3.5749   -5.2561   -3.6198 C.ar      1 <0>        -0.1053
     13 O1          5.5627   -5.2296   -4.9258 O.3       1 <0>        -0.4852
     14 O2          4.1054   -5.8696   -7.1741 O.3       1 <0>        -0.2450
     15 C13         3.3449   -6.1797   -8.2568 C.ar      1 <0>         0.0303
     16 C14         2.7897   -5.1729   -9.0410 C.ar      1 <0>        -0.0827
     17 C15         2.0218   -5.5383  -10.1345 C.ar      1 <0>        -0.1575
     18 C16         1.8334   -6.8802  -10.4090 C.ar      1 <0>         0.1014
     19 N1          2.3733   -7.8097   -9.6454 N.ar      1 <0>        -0.4663
     20 C17         3.1156   -7.5043   -8.5995 C.ar      1 <0>         0.1006
     21 H1         -0.3502    0.0459    0.9926 H         1 <0>         0.0534
     22 H2         -1.9087   -0.3327    0.2204 H         1 <0>         0.0532
     23 H3         -1.7271   -0.4926    1.9839 H         1 <0>         0.0537
     24 H4         -0.0981   -2.3319    1.6494 H         1 <0>         0.0607
     25 H5         -1.6565   -2.7104    0.8772 H         1 <0>         0.0606
     26 H6         -0.7613   -1.9450   -1.3048 H         1 <0>         0.0608
     27 H7          0.7971   -1.5665   -0.5327 H         1 <0>         0.0609
     28 H8          1.0493   -3.9442    0.1241 H         1 <0>         0.0627
     29 H9         -0.5092   -4.3228   -0.6480 H         1 <0>         0.0624
     30 H10         0.3860   -3.5573   -2.8301 H         1 <0>         0.0631
     31 H11         1.9445   -3.1788   -2.0580 H         1 <0>         0.0632
     32 H12         2.1966   -5.5565   -1.4012 H         1 <0>         0.0744
     33 H13         0.6382   -5.9351   -2.1733 H         1 <0>         0.0745
     34 H14         0.4072   -5.8985   -4.5885 H         1 <0>         0.1294
     35 H15         1.5355   -6.1558   -6.7606 H         1 <0>         0.1282
     36 H16         4.1433   -5.0015   -2.7375 H         1 <0>         0.1384
     37 H17         5.8296   -4.3198   -5.1161 H         1 <0>         0.3887
     38 H18         2.9532   -4.1323   -8.8027 H         1 <0>         0.1430
     39 H19         1.5751   -4.7837  -10.7651 H         1 <0>         0.1452
     40 H20         1.2357   -7.1711  -11.2602 H         1 <0>         0.1649
     41 H21         3.5456   -8.2935   -8.0006 H         1 <0>         0.1636
@<TRIPOS>BOND
     1    1    2 1
     2    1   21 1
     3    1   22 1
     4    1   23 1
     5    2    3 1
     6    2   24 1
     7    2   25 1
     8    3    4 1
     9    3   26 1
    10    3   27 1
    11    4    5 1
    12    4   28 1
    13    4   29 1
    14    5    6 1
    15    5   30 1
    16    5   31 1
    17    6    7 1
    18    6   32 1
    19    6   33 1
    20    7   12 ar
    21    7    8 ar
    22    8    9 ar
    23    8   34 1
    24    9   10 ar
    25    9   35 1
    26   10   11 ar
    27   10   14 1
    28   11   12 ar
    29   11   13 1
    30   12   36 1
    31   13   37 1
    32   14   15 1
    33   15   20 ar
    34   15   16 ar
    35   16   17 ar
    36   16   38 1
    37   17   18 ar
    38   17   39 1
    39   18   19 ar
    40   18   40 1
    41   19   20 ar
    42   20   41 1
@<TRIPOS>MOLECULE
CHEMBL264682
   42    43     0     0     0
SMALL
USER_CHARGES

@<TRIPOS>ATOM
      1 C1          1.5176   -0.5717    0.5597 C.3       1 <0>        -0.1545
      2 C2          1.1793   -2.0354    0.2696 C.3       1 <0>        -0.1260
      3 C3         -0.3369   -2.2305    0.3326 C.3       1 <0>        -0.1211
      4 C4         -0.6752   -3.6942    0.0425 C.3       1 <0>        -0.1213
      5 C5         -2.1914   -3.8893    0.1055 C.3       1 <0>        -0.1142
      6 C6         -2.5297   -5.3529   -0.1847 C.3       1 <0>        -0.0782
      7 C7         -4.0232   -5.5451   -0.1226 C.ar      1 <0>        -0.0962
      8 C8         -4.6265   -5.8780    1.0761 C.ar      1 <0>        -0.0866
      9 C9         -5.9959   -6.0558    1.1382 C.ar      1 <0>        -0.1772
     10 C10        -6.7673   -5.9001   -0.0026 C.ar      1 <0>         0.0937
     11 C11        -6.1600   -5.5646   -1.2091 C.ar      1 <0>         0.0836
     12 C12        -4.7873   -5.3827   -1.2631 C.ar      1 <0>        -0.1062
     13 O1         -6.9125   -5.4107   -2.3313 O.3       1 <0>        -0.4859
     14 O2         -8.1145   -6.0751    0.0566 O.3       1 <0>        -0.2514
     15 C13        -8.6640   -6.3948    1.2575 C.ar      1 <0>         0.0794
     16 C14        -9.0866   -5.3914    2.1177 C.ar      1 <0>        -0.1263
     17 C15        -9.6449   -5.7191    3.3379 C.ar      1 <0>        -0.1063
     18 C16        -9.7828   -7.0458    3.7025 C.ar      1 <0>        -0.1163
     19 C17        -9.3625   -8.0476    2.8472 C.ar      1 <0>        -0.1058
     20 C18        -8.8088   -7.7255    1.6234 C.ar      1 <0>        -0.1250
     21 H1          2.5978   -0.4327    0.5148 H         1 <0>         0.0536
     22 H2          1.0380    0.0661   -0.1828 H         1 <0>         0.0534
     23 H3          1.1581   -0.3058    1.5537 H         1 <0>         0.0533
     24 H4          1.5389   -2.3013   -0.7245 H         1 <0>         0.0606
     25 H5          1.6589   -2.6732    1.0120 H         1 <0>         0.0605
     26 H6         -0.6965   -1.9646    1.3266 H         1 <0>         0.0608
     27 H7         -0.8165   -1.5927   -0.4099 H         1 <0>         0.0609
     28 H8         -0.3157   -3.9600   -0.9516 H         1 <0>         0.0624
     29 H9         -0.1956   -4.3320    0.7849 H         1 <0>         0.0623
     30 H10        -2.5510   -3.6234    1.0995 H         1 <0>         0.0632
     31 H11        -2.6710   -3.2515   -0.6370 H         1 <0>         0.0631
     32 H12        -2.1702   -5.6188   -1.1787 H         1 <0>         0.0736
     33 H13        -2.0502   -5.9908    0.5578 H         1 <0>         0.0738
     34 H14        -4.0265   -5.9996    1.9658 H         1 <0>         0.1286
     35 H15        -6.4646   -6.3165    2.0757 H         1 <0>         0.1319
     36 H16        -4.3140   -5.1181   -2.1971 H         1 <0>         0.1371
     37 H17        -7.2330   -4.5089   -2.4692 H         1 <0>         0.3879
     38 H18        -8.9788   -4.3550    1.8336 H         1 <0>         0.1303
     39 H19        -9.9737   -4.9385    4.0079 H         1 <0>         0.1316
     40 H20       -10.2193   -7.2999    4.6571 H         1 <0>         0.1297
     41 H21        -9.4714   -9.0831    3.1344 H         1 <0>         0.1318
     42 H22        -8.4848   -8.5085    0.9538 H         1 <0>         0.1313
@<TRIPOS>BOND
     1    1    2 1
     2    1   21 1
     3    1   22 1
     4    1   23 1
     5    2    3 1
     6    2   24 1
     7    2   25 1
     8    3    4 1
     9    3   26 1
    10    3   27 1
    11    4    5 1
    12    4   28 1
    13    4   29 1
    14    5    6 1
    15    5   30 1
    16    5   31 1
    17    6    7 1
    18    6   32 1
    19    6   33 1
    20    7   12 ar
    21    7    8 ar
    22    8    9 ar
    23    8   34 1
    24    9   10 ar
    25    9   35 1
    26   10   11 ar
    27   10   14 1
    28   11   12 ar
    29   11   13 1
    30   12   36 1
    31   13   37 1
    32   14   15 1
    33   15   20 ar
    34   15   16 ar
    35   16   17 ar
    36   16   38 1
    37   17   18 ar
    38   17   39 1
    39   18   19 ar
    40   18   40 1
    41   19   20 ar
    42   19   41 1
    43   20   42 1
@<TRIPOS>MOLECULE
CHEMBL259138
   41    42     0     0     0
SMALL
USER_CHARGES

@<TRIPOS>ATOM
      1 C1          1.5192   -0.5745    0.5533 C.3       1 <0>        -0.1546
      2 C2          1.1804   -2.0385    0.2651 C.3       1 <0>        -0.1261
      3 C3         -0.3359   -2.2330    0.3281 C.3       1 <0>        -0.1211
      4 C4         -0.6747   -3.6969    0.0399 C.3       1 <0>        -0.1214
      5 C5         -2.1910   -3.8914    0.1030 C.3       1 <0>        -0.1142
      6 C6         -2.5298   -5.3553   -0.1852 C.3       1 <0>        -0.0792
      7 C7         -4.0233   -5.5469   -0.1231 C.ar      1 <0>        -0.0918
      8 C8         -4.6269   -5.8778    1.0760 C.ar      1 <0>        -0.0857
      9 C9         -5.9964   -6.0547    1.1383 C.ar      1 <0>        -0.1760
     10 C10        -6.7677   -5.8998   -0.0027 C.ar      1 <0>         0.0913
     11 C11        -6.1600   -5.5662   -1.2096 C.ar      1 <0>         0.0887
     12 C12        -4.7872   -5.3857   -1.2639 C.ar      1 <0>        -0.1055
     13 O1         -6.9124   -5.4131   -2.3319 O.3       1 <0>        -0.4854
     14 O2         -8.1150   -6.0738    0.0567 O.3       1 <0>        -0.2496
     15 C13        -8.6639   -6.3931    1.2561 C.ar      1 <0>         0.1297
     16 C14        -9.0935   -5.3992    2.1324 C.ar      1 <0>        -0.1825
     17 C15        -9.6467   -5.7648    3.3422 C.ar      1 <0>         0.1164
     18 N1         -9.7703   -7.0364    3.6725 N.ar      1 <0>        -0.4821
     19 C16        -9.3754   -8.0065    2.8696 C.ar      1 <0>         0.1168
     20 C17        -8.8175   -7.7233    1.6399 C.ar      1 <0>        -0.1811
     21 H1          2.5994   -0.4360    0.5083 H         1 <0>         0.0537
     22 H2          1.0399    0.0625   -0.1901 H         1 <0>         0.0534
     23 H3          1.1596   -0.3072    1.5469 H         1 <0>         0.0533
     24 H4          1.5400   -2.3058   -0.7286 H         1 <0>         0.0607
     25 H5          1.6597   -2.6755    1.0085 H         1 <0>         0.0606
     26 H6         -0.6955   -1.9656    1.3218 H         1 <0>         0.0609
     27 H7         -0.8151   -1.5960   -0.4153 H         1 <0>         0.0610
     28 H8         -0.3151   -3.9642   -0.9537 H         1 <0>         0.0627
     29 H9         -0.1954   -4.3339    0.7833 H         1 <0>         0.0625
     30 H10        -2.5505   -3.6241    1.0966 H         1 <0>         0.0634
     31 H11        -2.6702   -3.2544   -0.6404 H         1 <0>         0.0634
     32 H12        -2.1702   -5.6226   -1.1788 H         1 <0>         0.0746
     33 H13        -2.0505   -5.9923    0.5582 H         1 <0>         0.0748
     34 H14        -4.0270   -5.9988    1.9658 H         1 <0>         0.1303
     35 H15        -6.4653   -6.3139    2.0760 H         1 <0>         0.1295
     36 H16        -4.3136   -5.1232   -2.1983 H         1 <0>         0.1391
     37 H17        -7.2323   -4.5112   -2.4710 H         1 <0>         0.3894
     38 H18        -8.9945   -4.3566    1.8684 H         1 <0>         0.1438
     39 H19        -9.9824   -5.0007    4.0277 H         1 <0>         0.1657
     40 H20        -9.4938   -9.0349    3.1774 H         1 <0>         0.1660
     41 H21        -8.5005   -8.5220    0.9856 H         1 <0>         0.1447
@<TRIPOS>BOND
     1    1    2 1
     2    1   21 1
     3    1   22 1
     4    1   23 1
     5    2    3 1
     6    2   24 1
     7    2   25 1
     8    3    4 1
     9    3   26 1
    10    3   27 1
    11    4    5 1
    12    4   28 1
    13    4   29 1
    14    5    6 1
    15    5   30 1
    16    5   31 1
    17    6    7 1
    18    6   32 1
    19    6   33 1
    20    7   12 ar
    21    7    8 ar
    22    8    9 ar
    23    8   34 1
    24    9   10 ar
    25    9   35 1
    26   10   11 ar
    27   10   14 1
    28   11   12 ar
    29   11   13 1
    30   12   36 1
    31   13   37 1
    32   14   15 1
    33   15   20 ar
    34   15   16 ar
    35   16   17 ar
    36   16   38 1
    37   17   18 ar
    38   17   39 1
    39   18   19 ar
    40   19   20 ar
    41   19   40 1
    42   20   41 1
@<TRIPOS>MOLECULE
CHEMBL259138__1
   42    43     0     0     0
SMALL
USER_CHARGES

@<TRIPOS>ATOM
      1 C1         -0.2645   -0.5870   -1.5855 C.3       1 <0>        -0.1554
      2 C2         -0.3079   -2.0509   -1.1429 C.3       1 <0>        -0.1267
      3 C3          0.5093   -2.2205    0.1395 C.3       1 <0>        -0.1206
      4 C4          0.4658   -3.6844    0.5821 C.3       1 <0>        -0.1227
      5 C5          1.2830   -3.8540    1.8644 C.3       1 <0>        -0.1134
      6 C6          1.2395   -5.3179    2.3070 C.3       1 <0>        -0.0873
      7 C7          2.0445   -5.4849    3.5701 C.ar      1 <0>        -0.0680
      8 C8          3.3926   -5.7824    3.4945 C.ar      1 <0>        -0.0855
      9 C9          4.1354   -5.9366    4.6500 C.ar      1 <0>        -0.1762
     10 C10         3.5290   -5.7926    5.8879 C.ar      1 <0>         0.0672
     11 C11         2.1720   -5.4927    5.9639 C.ar      1 <0>         0.1116
     12 C12         1.4345   -5.3347    4.8015 C.ar      1 <0>        -0.1015
     13 O1          1.5724   -5.3504    7.1760 O.3       1 <0>        -0.4832
     14 O2          4.2580   -5.9444    7.0256 O.3       1 <0>        -0.2436
     15 C13         5.5789   -6.2310    6.9025 C.ar      1 <0>         0.2289
     16 C14         6.5272   -5.2132    6.8329 C.ar      1 <0>        -0.1473
     17 C15         7.8604   -5.5459    6.7085 C.ar      1 <0>         0.1535
     18 N1          8.2401   -6.8086    6.6549 N.ar      1 <0>        -0.4504
     19 C16         7.3719   -7.8005    6.7172 C.ar      1 <0>         0.1538
     20 C17         6.0213   -7.5507    6.8483 C.ar      1 <0>        -0.1457
     21 H1          0.7688   -0.2942   -1.7718 H         1 <0>         0.0532
     22 H2         -0.8467   -0.4662   -2.4990 H         1 <0>         0.0557
     23 H3         -0.6846    0.0424   -0.8010 H         1 <0>         0.0539
     24 H4         -1.3412   -2.3436   -0.9566 H         1 <0>         0.0618
     25 H5          0.1122   -2.6803   -1.9273 H         1 <0>         0.0611
     26 H6          1.5426   -1.9277   -0.0468 H         1 <0>         0.0604
     27 H7          0.0891   -1.5911    0.9240 H         1 <0>         0.0615
     28 H8         -0.5675   -3.9771    0.7684 H         1 <0>         0.0649
     29 H9          0.8859   -4.3138   -0.2024 H         1 <0>         0.0638
     30 H10         2.3163   -3.5612    1.6781 H         1 <0>         0.0631
     31 H11         0.8629   -3.2246    2.6489 H         1 <0>         0.0648
     32 H12         0.2062   -5.6106    2.4933 H         1 <0>         0.0810
     33 H13         1.6597   -5.9473    1.5225 H         1 <0>         0.0798
     34 H14         3.8663   -5.8949    2.5305 H         1 <0>         0.1375
     35 H15         5.1881   -6.1696    4.5882 H         1 <0>         0.1228
     36 H16         0.3822   -5.0983    4.8576 H         1 <0>         0.1488
     37 H17         1.5892   -4.4466    7.5195 H         1 <0>         0.3972
     38 H18         6.2231   -4.1777    6.8755 H         1 <0>         0.1932
     39 H19         8.6025   -4.7631    6.6538 H         1 <0>         0.2187
     40 H20         7.7233   -8.8206    6.6692 H         1 <0>         0.2189
     41 H21         5.3165   -8.3671    6.9037 H         1 <0>         0.1940
     42 H22         9.1841   -7.0135    6.5669 H         1 <0>         0.4565
@<TRIPOS>BOND
     1    1    2 1
     2    1   21 1
     3    1   22 1
     4    1   23 1
     5    2    3 1
     6    2   24 1
     7    2   25 1
     8    3    4 1
     9    3   26 1
    10    3   27 1
    11    4    5 1
    12    4   28 1
    13    4   29 1
    14    5    6 1
    15    5   30 1
    16    5   31 1
    17    6    7 1
    18    6   32 1
    19    6   33 1
    20    7   12 ar
    21    7    8 ar
    22    8    9 ar
    23    8   34 1
    24    9   10 ar
    25    9   35 1
    26   10   11 ar
    27   10   14 1
    28   11   12 ar
    29   11   13 1
    30   12   36 1
    31   13   37 1
    32   14   15 1
    33   15   20 ar
    34   15   16 ar
    35   16   17 ar
    36   16   38 1
    37   17   18 ar
    38   17   39 1
    39   18   19 ar
    40   18   42 1
    41   19   20 ar
    42   19   40 1
    43   20   41 1
@<TRIPOS>MOLECULE
CHEMBL849
   24    25     0     0     0
SMALL
USER_CHARGES

@<TRIPOS>ATOM
      1 C1          0.6409    0.2697    1.1605 C.ar      1 <0>        -0.1053
      2 C2          1.8276    0.9794    1.1670 C.ar      1 <0>        -0.0911
      3 C3          2.3809    1.4153   -0.0261 C.ar      1 <0>         0.0524
      4 C4          1.7399    1.1371   -1.2302 C.ar      1 <0>         0.1181
      5 C5          0.5513    0.4257   -1.2306 C.ar      1 <0>        -0.1276
      6 C6          0.0037   -0.0069   -0.0356 C.ar      1 <0>        -0.0143
      7 Cl1        -1.4859   -0.8984   -0.0377 Cl        1 <0>        -0.0497
      8 O1          2.2792    1.5634   -2.4035 O.3       1 <0>        -0.4836
      9 O2          3.5477    2.1138   -0.0209 O.3       1 <0>        -0.2359
     10 C7          3.4812    3.4679   -0.1180 C.ar      1 <0>         0.1430
     11 C8          2.2494    4.1059   -0.1010 C.ar      1 <0>        -0.1652
     12 C9          2.1838    5.4822   -0.1993 C.ar      1 <0>        -0.0647
     13 C10         3.3456    6.2252   -0.3148 C.ar      1 <0>        -0.0565
     14 C11         4.5754    5.5917   -0.3326 C.ar      1 <0>        -0.0661
     15 C12         4.6461    4.2150   -0.2287 C.ar      1 <0>        -0.0524
     16 Cl2         6.1896    3.4206   -0.2439 Cl        1 <0>        -0.0396
     17 Cl3         3.2597    7.9547   -0.4382 Cl        1 <0>        -0.0530
     18 H1          0.2131   -0.0733    2.0909 H         1 <0>         0.1484
     19 H2          2.3230    1.1944    2.1023 H         1 <0>         0.1499
     20 H3          0.0519    0.2090   -2.1634 H         1 <0>         0.1503
     21 H4          2.8879    0.9310   -2.8093 H         1 <0>         0.4014
     22 H5          1.3422    3.5268   -0.0112 H         1 <0>         0.1432
     23 H6          1.2249    5.9789   -0.1864 H         1 <0>         0.1450
     24 H7          5.4809    6.1734   -0.4232 H         1 <0>         0.1534
@<TRIPOS>BOND
     1    1    6 ar
     2    1    2 ar
     3    1   18 1
     4    2    3 ar
     5    2   19 1
     6    3    4 ar
     7    3    9 1
     8    4    5 ar
     9    4    8 1
    10    5    6 ar
    11    5   20 1
    12    6    7 1
    13    8   21 1
    14    9   10 1
    15   10   15 ar
    16   10   11 ar
    17   11   12 ar
    18   11   22 1
    19   12   13 ar
    20   12   23 1
    21   13   14 ar
    22   13   17 1
    23   14   15 ar
    24   14   24 1
    25   15   16 1
@<TRIPOS>MOLECULE
CHEMBL849__1
   23    24     0     0     0
SMALL
USER_CHARGES

@<TRIPOS>ATOM
      1 C1          0.6410    0.2696    1.1605 C.ar      1 <0>        -0.2462
      2 C2          1.8276    0.9794    1.1670 C.ar      1 <0>        -0.0518
      3 C3          2.3809    1.4153   -0.0261 C.ar      1 <0>        -0.0995
      4 C4          1.7398    1.1372   -1.2302 C.ar      1 <0>         0.2785
      5 C5          0.5513    0.4258   -1.2306 C.ar      1 <0>        -0.2490
      6 C6          0.0037   -0.0069   -0.0356 C.ar      1 <0>         0.0341
      7 Cl1        -1.4859   -0.8984   -0.0377 Cl        1 <0>        -0.1116
      8 O1          2.2791    1.5635   -2.4035 O.3       1 <0>        -0.6900
      9 O2          3.5477    2.1138   -0.0209 O.3       1 <0>        -0.2158
     10 C7          3.4812    3.4679   -0.1180 C.ar      1 <0>         0.1718
     11 C8          2.2494    4.1059   -0.1010 C.ar      1 <0>        -0.1653
     12 C9          2.1838    5.4822   -0.1993 C.ar      1 <0>        -0.0671
     13 C10         3.3456    6.2252   -0.3148 C.ar      1 <0>        -0.0780
     14 C11         4.5754    5.5917   -0.3326 C.ar      1 <0>        -0.0689
     15 C12         4.6461    4.2150   -0.2287 C.ar      1 <0>        -0.0695
     16 Cl2         6.1896    3.4206   -0.2439 Cl        1 <0>        -0.0570
     17 Cl3         3.2597    7.9547   -0.4382 Cl        1 <0>        -0.0782
     18 H1          0.2132   -0.0734    2.0910 H         1 <0>         0.1135
     19 H2          2.3231    1.1943    2.1023 H         1 <0>         0.1130
     20 H3          0.0518    0.2091   -2.1633 H         1 <0>         0.1145
     21 H4          1.3422    3.5268   -0.0112 H         1 <0>         0.1450
     22 H5          1.2249    5.9789   -0.1864 H         1 <0>         0.1353
     23 H6          5.4809    6.1734   -0.4232 H         1 <0>         0.1422
@<TRIPOS>BOND
     1    1    6 ar
     2    1    2 ar
     3    1   18 1
     4    2    3 ar
     5    2   19 1
     6    3    4 ar
     7    3    9 1
     8    4    5 ar
     9    4    8 1
    10    5    6 ar
    11    5   20 1
    12    6    7 1
    13    9   10 1
    14   10   15 ar
    15   10   11 ar
    16   11   12 ar
    17   11   21 1
    18   12   13 ar
    19   12   22 1
    20   13   14 ar
    21   13   17 1
    22   14   15 ar
    23   14   23 1
    24   15   16 1
@<TRIPOS>MOLECULE
CHEMBL261355
   63    65     0     0     0
SMALL
USER_CHARGES

@<TRIPOS>ATOM
      1 C1          1.0928  -11.9540    1.6135 C.3       1 <0>        -0.1548
      2 C2          2.2928  -12.0310    0.6675 C.3       1 <0>        -0.1264
      3 C3          2.1901  -10.9188   -0.3781 C.3       1 <0>        -0.1206
      4 C4          3.3902  -10.9958   -1.3241 C.3       1 <0>        -0.1220
      5 C5          3.2875   -9.8836   -2.3698 C.3       1 <0>        -0.1134
      6 C6          4.4875   -9.9606   -3.3158 C.3       1 <0>        -0.0810
      7 C7          4.3864   -8.8651   -4.3457 C.ar      1 <0>        -0.0890
      8 C8          3.7202   -9.0959   -5.5350 C.ar      1 <0>        -0.0873
      9 C9          3.6250   -8.0946   -6.4832 C.ar      1 <0>        -0.1772
     10 C10         4.1977   -6.8556   -6.2424 C.ar      1 <0>         0.0882
     11 C11         4.8678   -6.6232   -5.0449 C.ar      1 <0>         0.0883
     12 C12         4.9550   -7.6298   -4.0967 C.ar      1 <0>        -0.1051
     13 O1          5.4314   -5.4093   -4.8039 O.3       1 <0>        -0.4854
     14 O2          4.1054   -5.8696   -7.1741 O.3       1 <0>        -0.2533
     15 C13         3.4354   -6.1401   -8.3249 C.ar      1 <0>         0.0973
     16 C14         2.0720   -5.8963   -8.4091 C.ar      1 <0>        -0.1249
     17 C15         1.3933   -6.1722   -9.5801 C.ar      1 <0>        -0.1036
     18 C16         2.0713   -6.6908  -10.6679 C.ar      1 <0>        -0.0951
     19 C17         3.4299   -6.9346  -10.5867 C.ar      1 <0>        -0.0786
     20 C18         4.1145   -6.6552   -9.4199 C.ar      1 <0>        -0.1223
     21 C19         1.3282   -6.9912  -11.9440 C.3       1 <0>         0.0979
     22 N1          1.3436   -5.8051  -12.8105 N.3       1 <0>        -0.5349
     23 C20         0.5718   -4.7063  -12.2131 C.3       1 <0>         0.0188
     24 C21         0.6622   -3.4738  -13.1156 C.3       1 <0>        -0.0023
     25 N2          0.1319   -3.8009  -14.4458 N.4       1 <0>        -0.3883
     26 C22         0.9281   -4.8830  -15.0397 C.3       1 <0>        -0.0023
     27 C23         0.8399   -6.1271  -14.1532 C.3       1 <0>         0.0249
     28 C24         0.2022   -2.6125  -15.3064 C.3       1 <0>        -0.0459
     29 H1          1.0855  -10.9852    2.1130 H         1 <0>         0.0535
     30 H2          0.1720  -12.0755    1.0430 H         1 <0>         0.0529
     31 H3          1.1659  -12.7464    2.3584 H         1 <0>         0.0547
     32 H4          3.2136  -11.9095    1.2380 H         1 <0>         0.0613
     33 H5          2.3001  -12.9998    0.1679 H         1 <0>         0.0607
     34 H6          1.2693  -11.0403   -0.9487 H         1 <0>         0.0602
     35 H7          2.1829   -9.9500    0.1214 H         1 <0>         0.0610
     36 H8          4.3109  -10.8742   -0.7536 H         1 <0>         0.0635
     37 H9          3.3974  -11.9645   -1.8237 H         1 <0>         0.0627
     38 H10         2.3667  -10.0051   -2.9403 H         1 <0>         0.0624
     39 H11         3.2802   -8.9148   -1.8702 H         1 <0>         0.0633
     40 H12         5.4083   -9.8390   -2.7453 H         1 <0>         0.0757
     41 H13         4.4948  -10.9293   -3.8153 H         1 <0>         0.0752
     42 H14         3.2735  -10.0609   -5.7239 H         1 <0>         0.1297
     43 H15         3.1047   -8.2778   -7.4117 H         1 <0>         0.1293
     44 H16         5.4706   -7.4507   -3.1648 H         1 <0>         0.1397
     45 H17         4.8406   -4.7813   -4.3661 H         1 <0>         0.3892
     46 H18         1.5418   -5.4916   -7.5596 H         1 <0>         0.1338
     47 H19         0.3320   -5.9830   -9.6460 H         1 <0>         0.1265
     48 H20         3.9572   -7.3397  -11.4377 H         1 <0>         0.1332
     49 H21         5.1765   -6.8417   -9.3584 H         1 <0>         0.1359
     50 H22         1.8101   -7.8230  -12.4579 H         1 <0>         0.0993
     51 H23         0.2972   -7.2569  -11.7101 H         1 <0>         0.0580
     52 H24        -0.4709   -5.0072  -12.1119 H         1 <0>         0.0614
     53 H25         0.9790   -4.4681  -11.2305 H         1 <0>         0.1263
     54 H26         0.0787   -2.6619  -12.6815 H         1 <0>         0.1359
     55 H27         1.7037   -3.1650  -13.2056 H         1 <0>         0.1378
     56 H28         0.5417   -5.1158  -16.0320 H         1 <0>         0.1366
     57 H29         1.9682   -4.5669  -15.1198 H         1 <0>         0.1379
     58 H30         1.4426   -6.9256  -14.5860 H         1 <0>         0.1249
     59 H31        -0.1984   -6.4515  -14.0839 H         1 <0>         0.0617
     60 H32         1.2397   -2.2909  -15.3978 H         1 <0>         0.1232
     61 H33        -0.1913   -2.8550  -16.2936 H         1 <0>         0.1245
     62 H34        -0.3896   -1.8098  -14.8665 H         1 <0>         0.1243
     63 H35        -0.8286   -4.0979  -14.3610 H         1 <0>         0.4222
@<TRIPOS>BOND
     1    1    2 1
     2    1   29 1
     3    1   30 1
     4    1   31 1
     5    2    3 1
     6    2   32 1
     7    2   33 1
     8    3    4 1
     9    3   34 1
    10    3   35 1
    11    4    5 1
    12    4   36 1
    13    4   37 1
    14    5    6 1
    15    5   38 1
    16    5   39 1
    17    6    7 1
    18    6   40 1
    19    6   41 1
    20    7   12 ar
    21    7    8 ar
    22    8    9 ar
    23    8   42 1
    24    9   10 ar
    25    9   43 1
    26   10   11 ar
    27   10   14 1
    28   11   12 ar
    29   11   13 1
    30   12   44 1
    31   13   45 1
    32   14   15 1
    33   15   20 ar
    34   15   16 ar
    35   16   17 ar
    36   16   46 1
    37   17   18 ar
    38   17   47 1
    39   18   19 ar
    40   18   21 1
    41   19   20 ar
    42   19   48 1
    43   20   49 1
    44   21   22 1
    45   21   50 1
    46   21   51 1
    47   22   27 1
    48   22   23 1
    49   23   24 1
    50   23   52 1
    51   23   53 1
    52   24   25 1
    53   24   54 1
    54   24   55 1
    55   25   26 1
    56   25   28 1
    57   25   63 1
    58   26   27 1
    59   26   56 1
    60   26   57 1
    61   27   58 1
    62   27   59 1
    63   28   60 1
    64   28   61 1
    65   28   62 1
@<TRIPOS>MOLECULE
CHEMBL261355__1
   63    65     0     0     0
SMALL
USER_CHARGES

@<TRIPOS>ATOM
      1 C1          1.0928  -11.9540    1.6135 C.3       1 <0>        -0.1550
      2 C2          2.2928  -12.0310    0.6675 C.3       1 <0>        -0.1265
      3 C3          2.1901  -10.9188   -0.3781 C.3       1 <0>        -0.1206
      4 C4          3.3902  -10.9958   -1.3241 C.3       1 <0>        -0.1222
      5 C5          3.2875   -9.8836   -2.3698 C.3       1 <0>        -0.1133
      6 C6          4.4875   -9.9606   -3.3158 C.3       1 <0>        -0.0828
      7 C7          4.3864   -8.8651   -4.3457 C.ar      1 <0>        -0.0832
      8 C8          3.7202   -9.0959   -5.5350 C.ar      1 <0>        -0.0874
      9 C9          3.6250   -8.0946   -6.4832 C.ar      1 <0>        -0.1771
     10 C10         4.1977   -6.8556   -6.2424 C.ar      1 <0>         0.0829
     11 C11         4.8678   -6.6232   -5.0449 C.ar      1 <0>         0.0940
     12 C12         4.9550   -7.6298   -4.0967 C.ar      1 <0>        -0.1042
     13 O1          5.4314   -5.4093   -4.8039 O.3       1 <0>        -0.4851
     14 O2          4.1054   -5.8696   -7.1741 O.3       1 <0>        -0.2536
     15 C13         3.4354   -6.1401   -8.3249 C.ar      1 <0>         0.1273
     16 C14         2.0720   -5.8963   -8.4091 C.ar      1 <0>        -0.1244
     17 C15         1.3933   -6.1722   -9.5801 C.ar      1 <0>        -0.0801
     18 C16         2.0713   -6.6908  -10.6679 C.ar      1 <0>        -0.1643
     19 C17         3.4299   -6.9346  -10.5867 C.ar      1 <0>        -0.0762
     20 C18         4.1145   -6.6552   -9.4199 C.ar      1 <0>        -0.1230
     21 C19         1.3282   -6.9912  -11.9440 C.3       1 <0>         0.0462
     22 N1          1.3436   -5.8051  -12.8105 N.4       1 <0>        -0.3857
     23 C20         0.5918   -4.7195  -12.1674 C.3       1 <0>        -0.0074
     24 C21         0.6235   -3.4777  -13.0612 C.3       1 <0>         0.0257
     25 N2          0.0301   -3.8017  -14.3662 N.3       1 <0>        -0.5432
     26 C22         0.7574   -4.9040  -15.0111 C.3       1 <0>         0.0240
     27 C23         0.7246   -6.1340  -14.1013 C.3       1 <0>        -0.0024
     28 C24        -0.0095   -2.6177  -15.2350 C.3       1 <0>         0.0193
     29 H1          1.0855  -10.9852    2.1130 H         1 <0>         0.0537
     30 H2          0.1720  -12.0755    1.0430 H         1 <0>         0.0530
     31 H3          1.1659  -12.7464    2.3584 H         1 <0>         0.0550
     32 H4          3.2136  -11.9095    1.2380 H         1 <0>         0.0615
     33 H5          2.3001  -12.9998    0.1679 H         1 <0>         0.0608
     34 H6          1.2693  -11.0403   -0.9487 H         1 <0>         0.0603
     35 H7          2.1829   -9.9500    0.1214 H         1 <0>         0.0612
     36 H8          4.3109  -10.8742   -0.7536 H         1 <0>         0.0639
     37 H9          3.3974  -11.9645   -1.8237 H         1 <0>         0.0630
     38 H10         2.3667  -10.0051   -2.9403 H         1 <0>         0.0626
     39 H11         3.2802   -8.9148   -1.8702 H         1 <0>         0.0637
     40 H12         5.4083   -9.8390   -2.7453 H         1 <0>         0.0771
     41 H13         4.4948  -10.9293   -3.8153 H         1 <0>         0.0764
     42 H14         3.2735  -10.0609   -5.7239 H         1 <0>         0.1315
     43 H15         3.1047   -8.2778   -7.4117 H         1 <0>         0.1276
     44 H16         5.4706   -7.4507   -3.1648 H         1 <0>         0.1421
     45 H17         4.8406   -4.7813   -4.3661 H         1 <0>         0.3914
     46 H18         1.5418   -5.4916   -7.5596 H         1 <0>         0.1445
     47 H19         0.3320   -5.9830   -9.6460 H         1 <0>         0.1403
     48 H20         3.9572   -7.3397  -11.4377 H         1 <0>         0.1399
     49 H21         5.1765   -6.8417   -9.3584 H         1 <0>         0.1450
     50 H22         1.8101   -7.8230  -12.4579 H         1 <0>         0.1396
     51 H23         0.2972   -7.2569  -11.7101 H         1 <0>         0.1388
     52 H24        -0.4414   -5.0325  -12.0170 H         1 <0>         0.1381
     53 H25         1.0443   -4.4853  -11.2039 H         1 <0>         0.1350
     54 H26         0.0531   -2.6766  -12.5911 H         1 <0>         0.1234
     55 H27         1.6556   -3.1563  -13.2007 H         1 <0>         0.0601
     56 H28         0.2848   -5.1435  -15.9637 H         1 <0>         0.1245
     57 H29         1.7918   -4.6061  -15.1827 H         1 <0>         0.0603
     58 H30         1.2757   -6.9485  -14.5715 H         1 <0>         0.1368
     59 H31        -0.3093   -6.4399  -13.9410 H         1 <0>         0.1389
     60 H32         1.0041   -2.2494  -15.3936 H         1 <0>         0.0395
     61 H33        -0.4530   -2.8854  -16.1940 H         1 <0>         0.0841
     62 H34        -0.6089   -1.8399  -14.7619 H         1 <0>         0.0844
     63 H35         2.2970   -5.5107  -12.9603 H         1 <0>         0.4202
@<TRIPOS>BOND
     1    1    2 1
     2    1   29 1
     3    1   30 1
     4    1   31 1
     5    2    3 1
     6    2   32 1
     7    2   33 1
     8    3    4 1
     9    3   34 1
    10    3   35 1
    11    4    5 1
    12    4   36 1
    13    4   37 1
    14    5    6 1
    15    5   38 1
    16    5   39 1
    17    6    7 1
    18    6   40 1
    19    6   41 1
    20    7   12 ar
    21    7    8 ar
    22    8    9 ar
    23    8   42 1
    24    9   10 ar
    25    9   43 1
    26   10   11 ar
    27   10   14 1
    28   11   12 ar
    29   11   13 1
    30   12   44 1
    31   13   45 1
    32   14   15 1
    33   15   20 ar
    34   15   16 ar
    35   16   17 ar
    36   16   46 1
    37   17   18 ar
    38   17   47 1
    39   18   19 ar
    40   18   21 1
    41   19   20 ar
    42   19   48 1
    43   20   49 1
    44   21   22 1
    45   21   50 1
    46   21   51 1
    47   22   27 1
    48   22   23 1
    49   22   63 1
    50   23   24 1
    51   23   52 1
    52   23   53 1
    53   24   25 1
    54   24   54 1
    55   24   55 1
    56   25   26 1
    57   25   28 1
    58   26   27 1
    59   26   56 1
    60   26   57 1
    61   27   58 1
    62   27   59 1
    63   28   60 1
    64   28   61 1
    65   28   62 1
@<TRIPOS>MOLECULE
CHEMBL217594
   61    65     0     0     0
SMALL
USER_CHARGES

@<TRIPOS>ATOM
      1 C1          0.6347    1.6185    0.3001 C.3       1 <0>         0.0547
      2 N1          0.4217    0.1805    0.1186 N.am      1 <0>        -0.6047
      3 C2          0.5802   -0.7324    1.2533 C.3       1 <0>         0.1511
      4 C3         -0.6961   -0.7651    2.0540 C.ar      1 <0>        -0.0888
      5 C4         -0.9312    0.1931    3.0383 C.ar      1 <0>        -0.0333
      6 C5          0.0117    1.2088    3.3067 C.ar      1 <0>        -0.1229
      7 C6         -0.2492    2.1267    4.2722 C.ar      1 <0>        -0.1074
      8 C7         -1.4307    2.0960    5.0138 C.ar      1 <0>        -0.1205
      9 C8         -2.3789    1.1471    4.8067 C.ar      1 <0>        -0.0992
     10 C9         -2.1732    0.1613    3.8175 C.ar      1 <0>        -0.0546
     11 C10        -3.1256   -0.8278    3.5789 C.ar      1 <0>        -0.0844
     12 C11        -2.8901   -1.7865    2.5952 C.ar      1 <0>        -0.0508
     13 C12        -1.6515   -1.7502    1.8109 C.ar      1 <0>        -0.0293
     14 C13        -1.4489   -2.7327    0.8177 C.ar      1 <0>        -0.1010
     15 C14        -2.4000   -3.6780    0.6069 C.ar      1 <0>        -0.1173
     16 C15        -3.5817   -3.7081    1.3483 C.ar      1 <0>        -0.1096
     17 C16        -3.8333   -2.8020    2.3272 C.ar      1 <0>        -0.1154
     18 C17         0.0798   -0.3026   -1.0923 C.2       1 <0>         0.5292
     19 O1         -0.1960   -1.4765   -1.2210 O.2       1 <0>        -0.5216
     20 C18         0.0404    0.6161   -2.2863 C.3       1 <0>        -0.1230
     21 C19        -1.2925    1.3982   -2.3389 C.3       1 <0>        -0.1434
     22 C20        -1.6185    1.4769   -3.8141 C.2       1 <0>         0.5224
     23 O2         -2.4234    2.2379   -4.3080 O.2       1 <0>        -0.5212
     24 N2         -0.8858    0.5811   -4.4978 N.am      1 <0>        -0.6149
     25 C21        -0.0155   -0.1904   -3.6027 C.3       1 <0>         0.1159
     26 C22        -0.9481    0.3983   -5.9501 C.3       1 <0>         0.1623
     27 C23        -0.5627    1.7054   -6.6456 C.3       1 <0>        -0.1335
     28 C24        -0.6277    1.5145   -8.1623 C.3       1 <0>        -0.1147
     29 C25        -2.0502    1.1220   -8.5663 C.3       1 <0>        -0.1231
     30 C26        -2.4357   -0.1852   -7.8708 C.3       1 <0>        -0.1147
     31 C27        -2.3706    0.0058   -6.3541 C.3       1 <0>        -0.1346
     32 H1          1.6987    1.8411    0.2205 H         1 <0>         0.0646
     33 H2          0.0904    2.1664   -0.4691 H         1 <0>         0.0776
     34 H3          0.2734    1.9180    1.2839 H         1 <0>         0.0854
     35 H4          0.8041   -1.7338    0.8855 H         1 <0>         0.1019
     36 H5          1.3975   -0.3867    1.8863 H         1 <0>         0.0913
     37 H6          0.9347    1.2551    2.7479 H         1 <0>         0.1305
     38 H7          0.4770    2.9007    4.4718 H         1 <0>         0.1226
     39 H8         -1.5950    2.8468    5.7726 H         1 <0>         0.1225
     40 H9         -3.2846    1.1460    5.3951 H         1 <0>         0.1284
     41 H10        -4.0401   -0.8514    4.1530 H         1 <0>         0.1328
     42 H11        -0.5432   -2.7321    0.2293 H         1 <0>         0.1539
     43 H12        -2.2379   -4.4261   -0.1550 H         1 <0>         0.1204
     44 H13        -4.3102   -4.4792    1.1455 H         1 <0>         0.1207
     45 H14        -4.7559   -2.8484    2.8867 H         1 <0>         0.1271
     46 H15         0.8923    1.2959   -2.2812 H         1 <0>         0.1154
     47 H16        -2.0734    0.8578   -1.8039 H         1 <0>         0.1078
     48 H17        -1.1651    2.3975   -1.9225 H         1 <0>         0.1092
     49 H18         0.9822   -0.2809   -4.0322 H         1 <0>         0.0840
     50 H19        -0.4403   -1.1779   -3.4223 H         1 <0>         0.0948
     51 H20        -0.2556   -0.3893   -6.2472 H         1 <0>         0.0883
     52 H21        -1.2552    2.4930   -6.3485 H         1 <0>         0.0790
     53 H22         0.4507    1.9850   -6.3577 H         1 <0>         0.0624
     54 H23        -0.3531    2.4457   -8.6578 H         1 <0>         0.0661
     55 H24         0.0648    0.7269   -8.4594 H         1 <0>         0.0625
     56 H25        -2.7427    1.9095   -8.2692 H         1 <0>         0.0645
     57 H26        -2.0966    0.9860   -9.6468 H         1 <0>         0.0638
     58 H27        -3.4491   -0.4648   -8.1587 H         1 <0>         0.0661
     59 H28        -1.7432   -0.9727   -8.1679 H         1 <0>         0.0625
     60 H29        -2.6452   -0.9255   -5.8586 H         1 <0>         0.0632
     61 H30        -3.0631    0.7933   -6.0570 H         1 <0>         0.0791
@<TRIPOS>BOND
     1    1    2 1
     2    1   32 1
     3    1   33 1
     4    1   34 1
     5    2    3 1
     6    2   18 am
     7    3    4 1
     8    3   35 1
     9    3   36 1
    10    4   13 ar
    11    4    5 ar
    12    5   10 ar
    13    5    6 ar
    14    6    7 ar
    15    6   37 1
    16    7    8 ar
    17    7   38 1
    18    8    9 ar
    19    8   39 1
    20    9   10 ar
    21    9   40 1
    22   10   11 ar
    23   11   12 ar
    24   11   41 1
    25   12   17 ar
    26   12   13 ar
    27   13   14 ar
    28   14   15 ar
    29   14   42 1
    30   15   16 ar
    31   15   43 1
    32   16   17 ar
    33   16   44 1
    34   17   45 1
    35   18   19 2
    36   18   20 1
    37   20   25 1
    38   20   21 1
    39   20   46 1
    40   21   22 1
    41   21   47 1
    42   21   48 1
    43   22   23 2
    44   22   24 am
    45   24   25 1
    46   24   26 1
    47   25   49 1
    48   25   50 1
    49   26   31 1
    50   26   27 1
    51   26   51 1
    52   27   28 1
    53   27   52 1
    54   27   53 1
    55   28   29 1
    56   28   54 1
    57   28   55 1
    58   29   30 1
    59   29   56 1
    60   29   57 1
    61   30   31 1
    62   30   58 1
    63   30   59 1
    64   31   60 1
    65   31   61 1
@<TRIPOS>MOLECULE
CHEMBL217594__1
   61    65     0     0     0
SMALL
USER_CHARGES

@<TRIPOS>ATOM
      1 C1         -0.0573    1.4349    0.0016 C.3       1 <0>         0.0573
      2 N1         -0.0130   -0.0294   -0.0122 N.am      1 <0>        -0.6058
      3 C2          0.0178   -0.7732    1.2496 C.3       1 <0>         0.1508
      4 C3         -1.3866   -0.9353    1.7715 C.ar      1 <0>        -0.0867
      5 C4         -2.1166   -2.0850    1.4752 C.ar      1 <0>        -0.0299
      6 C5         -1.5631   -3.1167    0.6865 C.ar      1 <0>        -0.1008
      7 C6         -2.3015   -4.2234    0.4172 C.ar      1 <0>        -0.1178
      8 C7         -3.6021   -4.3732    0.9001 C.ar      1 <0>        -0.1091
      9 C8         -4.1940   -3.4198    1.6638 C.ar      1 <0>        -0.1160
     10 C9         -3.4833   -2.2427    1.9831 C.ar      1 <0>        -0.0502
     11 C10        -4.0608   -1.2436    2.7644 C.ar      1 <0>        -0.0854
     12 C11        -3.3312   -0.0936    3.0600 C.ar      1 <0>        -0.0541
     13 C12        -1.9618    0.0608    2.5584 C.ar      1 <0>        -0.0338
     14 C13        -1.2493    1.2355    2.8828 C.ar      1 <0>        -0.1226
     15 C14        -1.8395    2.1860    3.6516 C.ar      1 <0>        -0.1077
     16 C15        -3.1399    2.0358    4.1347 C.ar      1 <0>        -0.1202
     17 C16        -3.8851    0.9377    3.8487 C.ar      1 <0>        -0.0997
     18 C17        -0.0006   -0.6922   -1.1856 C.2       1 <0>         0.5243
     19 O1         -0.0520   -1.9038   -1.1983 O.2       1 <0>        -0.5193
     20 C18         0.0772    0.0723   -2.4820 C.3       1 <0>        -0.1244
     21 C19         1.4494    0.7691   -2.6321 C.3       1 <0>        -0.1469
     22 C20         2.2851   -0.2213   -3.4125 C.2       1 <0>         0.5182
     23 O2          3.4941   -0.1906   -3.5034 O.2       1 <0>        -0.5239
     24 N2          1.4927   -1.1407   -3.9903 N.am      1 <0>        -0.6094
     25 C21         0.0781   -0.8888   -3.6914 C.3       1 <0>         0.1164
     26 C22         1.9788   -2.2513   -4.8128 C.3       1 <0>         0.1647
     27 C23         2.9139   -3.1310   -3.9806 C.3       1 <0>        -0.1325
     28 C24         3.4216   -4.2909   -4.8395 C.3       1 <0>        -0.1146
     29 C25         4.1819   -3.7373   -6.0462 C.3       1 <0>        -0.1228
     30 C26         3.2468   -2.8576   -6.8785 C.3       1 <0>        -0.1145
     31 C27         2.7391   -1.6977   -6.0195 C.3       1 <0>        -0.1337
     32 H1          0.9588    1.8292   -0.0017 H         1 <0>         0.0640
     33 H2         -0.5880    1.7907   -0.8815 H         1 <0>         0.0755
     34 H3         -0.5759    1.7743    0.8983 H         1 <0>         0.0861
     35 H4          0.4586   -1.7558    1.0814 H         1 <0>         0.1008
     36 H5          0.6156   -0.2267    1.9790 H         1 <0>         0.0904
     37 H6         -0.5589   -3.0259    0.2995 H         1 <0>         0.1544
     38 H7         -1.8713   -5.0084   -0.1869 H         1 <0>         0.1200
     39 H8         -4.1522   -5.2709    0.6597 H         1 <0>         0.1206
     40 H9         -5.2022   -3.5608    2.0245 H         1 <0>         0.1270
     41 H10        -5.0674   -1.3597    3.1381 H         1 <0>         0.1328
     42 H11        -0.2412    1.3769    2.5221 H         1 <0>         0.1306
     43 H12        -1.2880    3.0818    3.8959 H         1 <0>         0.1227
     44 H13        -3.5686    2.8185    4.7430 H         1 <0>         0.1225
     45 H14        -4.8896    0.8469    4.2349 H         1 <0>         0.1283
     46 H15        -0.7372    0.7929   -2.5571 H         1 <0>         0.1237
     47 H16         1.3451    1.7014   -3.1872 H         1 <0>         0.1163
     48 H17         1.8922    0.9543   -1.6534 H         1 <0>         0.1056
     49 H18        -0.4245   -1.8209   -3.4329 H         1 <0>         0.0973
     50 H19        -0.4104   -0.4204   -4.5458 H         1 <0>         0.0802
     51 H20         1.1326   -2.8454   -5.1578 H         1 <0>         0.0869
     52 H21         3.7602   -2.5369   -3.6355 H         1 <0>         0.0764
     53 H22         2.3723   -3.5254   -3.1209 H         1 <0>         0.0653
     54 H23         4.0878   -4.9177   -4.2466 H         1 <0>         0.0652
     55 H24         2.5754   -4.8850   -5.1846 H         1 <0>         0.0620
     56 H25         5.0281   -3.1432   -5.7012 H         1 <0>         0.0640
     57 H26         4.5436   -4.5636   -6.6582 H         1 <0>         0.0632
     58 H27         3.7885   -2.4632   -7.7382 H         1 <0>         0.0656
     59 H28         2.4006   -3.4517   -7.2235 H         1 <0>         0.0622
     60 H29         2.0729   -1.0709   -6.6124 H         1 <0>         0.0618
     61 H30         3.5854   -1.1036   -5.6744 H         1 <0>         0.0788
@<TRIPOS>BOND
     1    1    2 1
     2    1   32 1
     3    1   33 1
     4    1   34 1
     5    2    3 1
     6    2   18 am
     7    3    4 1
     8    3   35 1
     9    3   36 1
    10    4   13 ar
    11    4    5 ar
    12    5   10 ar
    13    5    6 ar
    14    6    7 ar
    15    6   37 1
    16    7    8 ar
    17    7   38 1
    18    8    9 ar
    19    8   39 1
    20    9   10 ar
    21    9   40 1
    22   10   11 ar
    23   11   12 ar
    24   11   41 1
    25   12   17 ar
    26   12   13 ar
    27   13   14 ar
    28   14   15 ar
    29   14   42 1
    30   15   16 ar
    31   15   43 1
    32   16   17 ar
    33   16   44 1
    34   17   45 1
    35   18   19 2
    36   18   20 1
    37   20   25 1
    38   20   21 1
    39   20   46 1
    40   21   22 1
    41   21   47 1
    42   21   48 1
    43   22   23 2
    44   22   24 am
    45   24   25 1
    46   24   26 1
    47   25   49 1
    48   25   50 1
    49   26   31 1
    50   26   27 1
    51   26   51 1
    52   27   28 1
    53   27   52 1
    54   27   53 1
    55   28   29 1
    56   28   54 1
    57   28   55 1
    58   29   30 1
    59   29   56 1
    60   29   57 1
    61   30   31 1
    62   30   58 1
    63   30   59 1
    64   31   60 1
    65   31   61 1
@<TRIPOS>MOLECULE
CHEMBL217852
   54    58     0     0     0
SMALL
USER_CHARGES

@<TRIPOS>ATOM
      1 C1          0.9804    1.2801    3.1635 C.ar      1 <0>        -0.1173
      2 C2          1.9374    2.0231    2.4962 C.ar      1 <0>        -0.1171
      3 C3          2.9155    1.3889    1.7572 C.ar      1 <0>        -0.1088
      4 C4          2.9379   -0.0023    1.6845 C.ar      1 <0>        -0.0473
      5 C5          1.9717   -0.7458    2.3591 C.ar      1 <0>        -0.1103
      6 C6          0.9979   -0.1012    3.0947 C.ar      1 <0>        -0.1176
      7 C7          3.9868   -0.6898    0.8911 C.ar      1 <0>        -0.0251
      8 C8          4.9562    0.0545    0.2208 C.ar      1 <0>        -0.1224
      9 C9          5.9313   -0.5864   -0.5168 C.ar      1 <0>        -0.0960
     10 C10         5.9503   -1.9663   -0.5937 C.ar      1 <0>        -0.1181
     11 C11         4.9883   -2.7160    0.0715 C.ar      1 <0>         0.1468
     12 C12         4.0085   -2.0798    0.8189 C.ar      1 <0>        -0.1353
     13 N1          5.0105   -4.1129   -0.0091 N.am      1 <0>        -0.6699
     14 C13         6.1870   -4.7640   -0.1014 C.2       1 <0>         0.5281
     15 O1          7.2288   -4.1484   -0.0191 O.2       1 <0>        -0.5078
     16 C14         6.2080   -6.2568   -0.3068 C.3       1 <0>        -0.1241
     17 C15         5.6691   -6.9947    0.9406 C.3       1 <0>        -0.1470
     18 C16         6.5319   -8.2332    1.0405 C.2       1 <0>         0.5202
     19 O2          6.2666   -9.2129    1.7044 O.2       1 <0>        -0.5210
     20 N2          7.6352   -8.0902    0.2861 N.am      1 <0>        -0.6067
     21 C17         7.6580   -6.7840   -0.3828 C.3       1 <0>         0.1128
     22 C18         8.6806   -9.1073    0.1492 C.3       1 <0>         0.1553
     23 C19         9.8115   -8.5971   -0.7728 C.3       1 <0>        -0.1334
     24 C20         9.8277   -9.5984   -1.9680 C.3       1 <0>        -0.1024
     25 C21         8.5136   -9.2937   -2.7502 C.3       1 <0>        -0.1214
     26 C22         7.3827   -9.8040   -1.8282 C.3       1 <0>        -0.1206
     27 C23         8.1200  -10.3689   -0.5757 C.3       1 <0>        -0.1104
     28 C24         9.4285  -10.9288   -1.2373 C.3       1 <0>        -0.1233
     29 H1          0.2193    1.7803    3.7440 H         1 <0>         0.1237
     30 H2          1.9191    3.1014    2.5532 H         1 <0>         0.1254
     31 H3          3.6618    1.9700    1.2359 H         1 <0>         0.1265
     32 H4          1.9842   -1.8244    2.3058 H         1 <0>         0.1240
     33 H5          0.2484   -0.6765    3.6180 H         1 <0>         0.1249
     34 H6          4.9443    1.1329    0.2783 H         1 <0>         0.1279
     35 H7          6.6813   -0.0078   -1.0357 H         1 <0>         0.1300
     36 H8          6.7148   -2.4629   -1.1727 H         1 <0>         0.1356
     37 H9          3.2619   -2.6609    1.3399 H         1 <0>         0.1293
     38 H10         4.1792   -4.6126    0.0016 H         1 <0>         0.4134
     39 H11         5.6450   -6.5338   -1.1981 H         1 <0>         0.1232
     40 H12         5.7858   -6.3756    1.8301 H         1 <0>         0.1095
     41 H13         4.6235   -7.2685    0.7998 H         1 <0>         0.1127
     42 H14         7.9639   -6.8981   -1.4227 H         1 <0>         0.0901
     43 H15         8.3338   -6.1054    0.1377 H         1 <0>         0.0940
     44 H16         9.0782   -9.3766    1.1278 H         1 <0>         0.0830
     45 H17         9.5897   -7.5894   -1.1243 H         1 <0>         0.0801
     46 H18        10.7669   -8.6158   -0.2485 H         1 <0>         0.0767
     47 H19        10.7469   -9.6273   -2.5530 H         1 <0>         0.1031
     48 H20         8.4117   -8.2217   -2.9190 H         1 <0>         0.0622
     49 H21         8.5025   -9.8313   -3.6984 H         1 <0>         0.0652
     50 H22         6.7248   -8.9829   -1.5436 H         1 <0>         0.0649
     51 H23         6.8156  -10.5925   -2.3230 H         1 <0>         0.0629
     52 H24         7.5469  -11.0590    0.0436 H         1 <0>         0.1040
     53 H25         9.2184  -11.7344   -1.9408 H         1 <0>         0.0750
     54 H26        10.1684  -11.2245   -0.4935 H         1 <0>         0.0725
@<TRIPOS>BOND
     1    1    6 ar
     2    1    2 ar
     3    1   29 1
     4    2    3 ar
     5    2   30 1
     6    3    4 ar
     7    3   31 1
     8    4    5 ar
     9    4    7 1
    10    5    6 ar
    11    5   32 1
    12    6   33 1
    13    7   12 ar
    14    7    8 ar
    15    8    9 ar
    16    8   34 1
    17    9   10 ar
    18    9   35 1
    19   10   11 ar
    20   10   36 1
    21   11   12 ar
    22   11   13 1
    23   12   37 1
    24   13   14 am
    25   13   38 1
    26   14   15 2
    27   14   16 1
    28   16   21 1
    29   16   17 1
    30   16   39 1
    31   17   18 1
    32   17   40 1
    33   17   41 1
    34   18   19 2
    35   18   20 am
    36   20   21 1
    37   20   22 1
    38   21   42 1
    39   21   43 1
    40   22   27 1
    41   22   23 1
    42   22   44 1
    43   23   24 1
    44   23   45 1
    45   23   46 1
    46   24   28 1
    47   24   25 1
    48   24   47 1
    49   25   26 1
    50   25   48 1
    51   25   49 1
    52   26   27 1
    53   26   50 1
    54   26   51 1
    55   27   28 1
    56   27   52 1
    57   28   53 1
    58   28   54 1
@<TRIPOS>MOLECULE
CHEMBL217852__1
   54    58     0     0     0
SMALL
USER_CHARGES

@<TRIPOS>ATOM
      1 C1          1.0712    1.4060    2.9599 C.ar      1 <0>        -0.1173
      2 C2          1.9776    2.1097    2.1876 C.ar      1 <0>        -0.1171
      3 C3          2.9150    1.4347    1.4322 C.ar      1 <0>        -0.1088
      4 C4          2.9476    0.0418    1.4491 C.ar      1 <0>        -0.0473
      5 C5          2.0325   -0.6620    2.2292 C.ar      1 <0>        -0.1103
      6 C6          1.0990    0.0232    2.9803 C.ar      1 <0>        -0.1176
      7 C7          3.9529   -0.6894    0.6386 C.ar      1 <0>        -0.0251
      8 C8          4.8715    0.0155   -0.1375 C.ar      1 <0>        -0.1225
      9 C9          5.8061   -0.6661   -0.8908 C.ar      1 <0>        -0.0959
     10 C10         5.8349   -2.0479   -0.8787 C.ar      1 <0>        -0.1181
     11 C11         4.9235   -2.7586   -0.1077 C.ar      1 <0>         0.1469
     12 C12         3.9848   -2.0810    0.6560 C.ar      1 <0>        -0.1354
     13 N1          4.9554   -4.1576   -0.0983 N.am      1 <0>        -0.6700
     14 C13         6.1305   -4.8056   -0.2228 C.2       1 <0>         0.5279
     15 O1          7.1689   -4.1794   -0.2465 O.2       1 <0>        -0.5077
     16 C14         6.1543   -6.3085   -0.3324 C.3       1 <0>        -0.1247
     17 C15         5.7026   -6.9671    0.9917 C.3       1 <0>        -0.1465
     18 C16         6.5831   -8.1910    1.1166 C.2       1 <0>         0.5199
     19 O2          6.3703   -9.1270    1.8578 O.2       1 <0>        -0.5252
     20 N2          7.6352   -8.0902    0.2861 N.am      1 <0>        -0.6078
     21 C17         7.6022   -6.8302   -0.4658 C.3       1 <0>         0.1108
     22 C18         8.6806   -9.1073    0.1492 C.3       1 <0>         0.1513
     23 C19        10.0568   -8.5218    0.5403 C.3       1 <0>        -0.1334
     24 C20        10.9181   -8.6410   -0.7539 C.3       1 <0>        -0.1016
     25 C21        11.1720  -10.1711   -0.9143 C.3       1 <0>        -0.1234
     26 C22         9.7958  -10.7566   -1.3054 C.3       1 <0>        -0.1203
     27 C23         8.8402   -9.5252   -1.3445 C.3       1 <0>        -0.1115
     28 C24         9.8223   -8.4119   -1.8539 C.3       1 <0>        -0.1351
     29 H1          0.3420    1.9382    3.5527 H         1 <0>         0.1236
     30 H2          1.9514    3.1893    2.1753 H         1 <0>         0.1254
     31 H3          3.6218    1.9851    0.8290 H         1 <0>         0.1265
     32 H4          2.0531   -1.7416    2.2456 H         1 <0>         0.1240
     33 H5          0.3892   -0.5213    3.5854 H         1 <0>         0.1248
     34 H6          4.8517    1.0953   -0.1497 H         1 <0>         0.1278
     35 H7          6.5166   -0.1180   -1.4917 H         1 <0>         0.1300
     36 H8          6.5676   -2.5765   -1.4703 H         1 <0>         0.1358
     37 H9          3.2778   -2.6314    1.2589 H         1 <0>         0.1293
     38 H10         4.1318   -4.6609   -0.0022 H         1 <0>         0.4135
     39 H11         5.5394   -6.6465   -1.1665 H         1 <0>         0.1241
     40 H12         5.8685   -6.2907    1.8302 H         1 <0>         0.1096
     41 H13         4.6532   -7.2562    0.9354 H         1 <0>         0.1133
     42 H14         7.8434   -7.0098   -1.5135 H         1 <0>         0.0945
     43 H15         8.3022   -6.1149   -0.0341 H         1 <0>         0.0933
     44 H16         8.4469   -9.9765    0.7641 H         1 <0>         0.1012
     45 H17         9.9555   -7.4771    0.8345 H         1 <0>         0.0724
     46 H18        10.5016   -9.1034    1.3478 H         1 <0>         0.0744
     47 H19        11.7941   -7.9943   -0.8046 H         1 <0>         0.1020
     48 H20        11.9012  -10.3547   -1.7034 H         1 <0>         0.0658
     49 H21        11.5138  -10.6004    0.0275 H         1 <0>         0.0664
     50 H22         9.8485  -11.2281   -2.2868 H         1 <0>         0.0694
     51 H23         9.4611  -11.4738   -0.5559 H         1 <0>         0.0672
     52 H24         7.9140   -9.6584   -1.9036 H         1 <0>         0.1012
     53 H25         9.3810   -7.4172   -1.7903 H         1 <0>         0.0768
     54 H26        10.1972   -8.6244   -2.8550 H         1 <0>         0.0736
@<TRIPOS>BOND
     1    1    6 ar
     2    1    2 ar
     3    1   29 1
     4    2    3 ar
     5    2   30 1
     6    3    4 ar
     7    3   31 1
     8    4    5 ar
     9    4    7 1
    10    5    6 ar
    11    5   32 1
    12    6   33 1
    13    7   12 ar
    14    7    8 ar
    15    8    9 ar
    16    8   34 1
    17    9   10 ar
    18    9   35 1
    19   10   11 ar
    20   10   36 1
    21   11   12 ar
    22   11   13 1
    23   12   37 1
    24   13   14 am
    25   13   38 1
    26   14   15 2
    27   14   16 1
    28   16   21 1
    29   16   17 1
    30   16   39 1
    31   17   18 1
    32   17   40 1
    33   17   41 1
    34   18   19 2
    35   18   20 am
    36   20   21 1
    37   20   22 1
    38   21   42 1
    39   21   43 1
    40   22   27 1
    41   22   23 1
    42   22   44 1
    43   23   24 1
    44   23   45 1
    45   23   46 1
    46   24   28 1
    47   24   25 1
    48   24   47 1
    49   25   26 1
    50   25   48 1
    51   25   49 1
    52   26   27 1
    53   26   50 1
    54   26   51 1
    55   27   28 1
    56   27   52 1
    57   28   53 1
    58   28   54 1
@<TRIPOS>MOLECULE
CHEMBL217852__2
   54    58     0     0     0
SMALL
USER_CHARGES

@<TRIPOS>ATOM
      1 C1          1.0320    1.3553    3.0384 C.ar      1 <0>        -0.1173
      2 C2          1.9602    2.0758    2.3086 C.ar      1 <0>        -0.1171
      3 C3          2.9148    1.4175    1.5600 C.ar      1 <0>        -0.1088
      4 C4          2.9426    0.0246    1.5407 C.ar      1 <0>        -0.0472
      5 C5          2.0055   -0.6962    2.2781 C.ar      1 <0>        -0.1103
      6 C6          1.0550   -0.0276    3.0228 C.ar      1 <0>        -0.1176
      7 C7          3.9663   -0.6887    0.7373 C.ar      1 <0>        -0.0251
      8 C8          4.9068    0.0330    0.0041 C.ar      1 <0>        -0.1225
      9 C9          5.8584   -0.6319   -0.7428 C.ar      1 <0>        -0.0959
     10 C10         5.8826   -2.0137   -0.7666 C.ar      1 <0>        -0.1182
     11 C11         4.9495   -2.7411   -0.0385 C.ar      1 <0>         0.1468
     12 C12         3.9935   -2.0804    0.7185 C.ar      1 <0>        -0.1354
     13 N1          4.9768   -4.1400   -0.0653 N.am      1 <0>        -0.6699
     14 C13         6.1527   -4.7889   -0.1776 C.2       1 <0>         0.5280
     15 O1          7.1932   -4.1659   -0.1613 O.2       1 <0>        -0.5075
     16 C14         6.1747   -6.2887   -0.3235 C.3       1 <0>        -0.1251
     17 C15         5.6896   -6.9779    0.9729 C.3       1 <0>        -0.1463
     18 C16         6.5632   -8.2076    1.0885 C.2       1 <0>         0.5202
     19 O2          6.3301   -9.1608    1.8012 O.2       1 <0>        -0.5249
     20 N2          7.6352   -8.0902    0.2861 N.am      1 <0>        -0.6078
     21 C17         7.6239   -6.8121   -0.4352 C.3       1 <0>         0.1148
     22 C18         8.6806   -9.1073    0.1492 C.3       1 <0>         0.1510
     23 C19         8.9220   -9.4347   -1.3421 C.3       1 <0>        -0.1320
     24 C20        10.4115   -9.0486   -1.5944 C.3       1 <0>        -0.1030
     25 C21        11.2305  -10.1240   -0.8172 C.3       1 <0>        -0.1227
     26 C22        10.9891   -9.7967    0.6741 C.3       1 <0>        -0.1210
     27 C23        10.0470   -8.5543    0.6576 C.3       1 <0>        -0.1120
     28 C24        10.5596   -7.8187   -0.6307 C.3       1 <0>        -0.1304
     29 H1          0.2894    1.8744    3.6261 H         1 <0>         0.1236
     30 H2          1.9377    3.1555    2.3242 H         1 <0>         0.1254
     31 H3          3.6386    1.9810    0.9900 H         1 <0>         0.1265
     32 H4          2.0224   -1.7760    2.2664 H         1 <0>         0.1240
     33 H5          0.3282   -0.5853    3.5947 H         1 <0>         0.1248
     34 H6          4.8907    1.1128    0.0200 H         1 <0>         0.1278
     35 H7          6.5860   -0.0708   -1.3104 H         1 <0>         0.1300
     36 H8          6.6288   -2.5293   -1.3530 H         1 <0>         0.1359
     37 H9          3.2694   -2.6440    1.2883 H         1 <0>         0.1293
     38 H10         4.1495   -4.6425   -0.0032 H         1 <0>         0.4134
     39 H11         5.5790   -6.6041   -1.1801 H         1 <0>         0.1237
     40 H12         5.8373   -6.3229    1.8315 H         1 <0>         0.1099
     41 H13         4.6410   -7.2619    0.8845 H         1 <0>         0.1132
     42 H14         7.8895   -6.9668   -1.4809 H         1 <0>         0.0887
     43 H15         8.3154   -6.1100    0.0305 H         1 <0>         0.0953
     44 H16         8.4073  -10.0083    0.6984 H         1 <0>         0.1010
     45 H17         8.7683  -10.4977   -1.5275 H         1 <0>         0.0755
     46 H18         8.2628   -8.8388   -1.9735 H         1 <0>         0.0721
     47 H19        10.6909   -8.8818   -2.6347 H         1 <0>         0.1021
     48 H20        10.8636  -11.1234   -1.0511 H         1 <0>         0.0662
     49 H21        12.2904  -10.0415   -1.0576 H         1 <0>         0.0658
     50 H22        10.5036  -10.6351    1.1735 H         1 <0>         0.0669
     51 H23        11.9304   -9.5532    1.1669 H         1 <0>         0.0691
     52 H24        10.0123   -7.9704    1.5773 H         1 <0>         0.1002
     53 H25        11.5969   -7.4984   -0.5331 H         1 <0>         0.0732
     54 H26         9.9072   -6.9939   -0.9173 H         1 <0>         0.0737
@<TRIPOS>BOND
     1    1    6 ar
     2    1    2 ar
     3    1   29 1
     4    2    3 ar
     5    2   30 1
     6    3    4 ar
     7    3   31 1
     8    4    5 ar
     9    4    7 1
    10    5    6 ar
    11    5   32 1
    12    6   33 1
    13    7   12 ar
    14    7    8 ar
    15    8    9 ar
    16    8   34 1
    17    9   10 ar
    18    9   35 1
    19   10   11 ar
    20   10   36 1
    21   11   12 ar
    22   11   13 1
    23   12   37 1
    24   13   14 am
    25   13   38 1
    26   14   15 2
    27   14   16 1
    28   16   21 1
    29   16   17 1
    30   16   39 1
    31   17   18 1
    32   17   40 1
    33   17   41 1
    34   18   19 2
    35   18   20 am
    36   20   21 1
    37   20   22 1
    38   21   42 1
    39   21   43 1
    40   22   27 1
    41   22   23 1
    42   22   44 1
    43   23   24 1
    44   23   45 1
    45   23   46 1
    46   24   28 1
    47   24   25 1
    48   24   47 1
    49   25   26 1
    50   25   48 1
    51   25   49 1
    52   26   27 1
    53   26   50 1
    54   26   51 1
    55   27   28 1
    56   27   52 1
    57   28   53 1
    58   28   54 1
@<TRIPOS>MOLECULE
CHEMBL217852__3
   54    58     0     0     0
SMALL
USER_CHARGES

@<TRIPOS>ATOM
      1 C1          0.9819    1.2838    3.1563 C.ar      1 <0>        -0.1172
      2 C2          1.9379    2.0257    2.4863 C.ar      1 <0>        -0.1171
      3 C3          2.9150    1.3904    1.7471 C.ar      1 <0>        -0.1088
      4 C4          2.9377   -0.0010    1.6769 C.ar      1 <0>        -0.0473
      5 C5          1.9725   -0.7434    2.3542 C.ar      1 <0>        -0.1103
      6 C6          0.9996   -0.0977    3.0900 C.ar      1 <0>        -0.1176
      7 C7          3.9856   -0.6897    0.8833 C.ar      1 <0>        -0.0250
      8 C8          4.9539    0.0536    0.2103 C.ar      1 <0>        -0.1225
      9 C9          5.9281   -0.5884   -0.5275 C.ar      1 <0>        -0.0960
     10 C10         5.9474   -1.9685   -0.6019 C.ar      1 <0>        -0.1181
     11 C11         4.9864   -2.7172    0.0660 C.ar      1 <0>         0.1469
     12 C12         4.0076   -2.0798    0.8137 C.ar      1 <0>        -0.1354
     13 N1          5.0089   -4.1142   -0.0120 N.am      1 <0>        -0.6700
     14 C13         6.1853   -4.7652   -0.1053 C.2       1 <0>         0.5279
     15 O1          7.2271   -4.1492   -0.0263 O.2       1 <0>        -0.5076
     16 C14         6.2063   -6.2584   -0.3077 C.3       1 <0>        -0.1243
     17 C15         5.6701   -6.9939    0.9423 C.3       1 <0>        -0.1472
     18 C16         6.5335   -8.2320    1.0430 C.2       1 <0>         0.5201
     19 O2          6.2698   -9.2104    1.7094 O.2       1 <0>        -0.5207
     20 N2          7.6352   -8.0902    0.2861 N.am      1 <0>        -0.6070
     21 C17         7.6563   -6.7854   -0.3855 C.3       1 <0>         0.1132
     22 C18         8.6806   -9.1073    0.1492 C.3       1 <0>         0.1555
     23 C19         9.8062   -8.6014   -0.7817 C.3       1 <0>        -0.1332
     24 C20        11.0826   -8.5888    0.1138 C.3       1 <0>        -0.1019
     25 C21        10.8445   -7.4186    1.1164 C.3       1 <0>        -0.1210
     26 C22         9.7189   -7.9246    2.0474 C.3       1 <0>        -0.1204
     27 C23         9.3830   -9.3528    1.5195 C.3       1 <0>        -0.1104
     28 C24        10.8003   -9.8252    1.0385 C.3       1 <0>        -0.1232
     29 H1          0.2215    1.7848    3.7369 H         1 <0>         0.1237
     30 H2          1.9194    3.1042    2.5413 H         1 <0>         0.1254
     31 H3          3.6605    1.9707    1.2237 H         1 <0>         0.1265
     32 H4          1.9853   -1.8221    2.3029 H         1 <0>         0.1240
     33 H5          0.2510   -0.6722    3.6154 H         1 <0>         0.1249
     34 H6          4.9418    1.1321    0.2659 H         1 <0>         0.1278
     35 H7          6.6773   -0.0107   -1.0484 H         1 <0>         0.1300
     36 H8          6.7112   -2.4660   -1.1810 H         1 <0>         0.1356
     37 H9          3.2618   -2.6601    1.3367 H         1 <0>         0.1293
     38 H10         4.1777   -4.6141    0.0012 H         1 <0>         0.4134
     39 H11         5.6416   -6.5373   -1.1974 H         1 <0>         0.1241
     40 H12         5.7884   -6.3730    1.8303 H         1 <0>         0.1089
     41 H13         4.6243   -7.2683    0.8041 H         1 <0>         0.1128
     42 H14         7.9602   -6.9015   -1.4258 H         1 <0>         0.0892
     43 H15         8.3330   -6.1056    0.1322 H         1 <0>         0.0946
     44 H16         8.2579  -10.0365   -0.2330 H         1 <0>         0.0828
     45 H17         9.9386   -9.2822   -1.6226 H         1 <0>         0.0761
     46 H18         9.5817   -7.5958   -1.1375 H         1 <0>         0.0800
     47 H19        12.0357   -8.5905   -0.4151 H         1 <0>         0.1028
     48 H20        11.7501   -7.2187    1.6891 H         1 <0>         0.0642
     49 H21        10.5241   -6.5224    0.5853 H         1 <0>         0.0644
     50 H22        10.0712   -7.9734    3.0777 H         1 <0>         0.0621
     51 H23         8.8452   -7.2771    1.9739 H         1 <0>         0.0648
     52 H24         8.8558  -10.0060    2.2149 H         1 <0>         0.1041
     53 H25        10.7510  -10.7557    0.4731 H         1 <0>         0.0721
     54 H26        11.5110   -9.8901    1.8624 H         1 <0>         0.0749
@<TRIPOS>BOND
     1    1    6 ar
     2    1    2 ar
     3    1   29 1
     4    2    3 ar
     5    2   30 1
     6    3    4 ar
     7    3   31 1
     8    4    5 ar
     9    4    7 1
    10    5    6 ar
    11    5   32 1
    12    6   33 1
    13    7   12 ar
    14    7    8 ar
    15    8    9 ar
    16    8   34 1
    17    9   10 ar
    18    9   35 1
    19   10   11 ar
    20   10   36 1
    21   11   12 ar
    22   11   13 1
    23   12   37 1
    24   13   14 am
    25   13   38 1
    26   14   15 2
    27   14   16 1
    28   16   21 1
    29   16   17 1
    30   16   39 1
    31   17   18 1
    32   17   40 1
    33   17   41 1
    34   18   19 2
    35   18   20 am
    36   20   21 1
    37   20   22 1
    38   21   42 1
    39   21   43 1
    40   22   27 1
    41   22   23 1
    42   22   44 1
    43   23   24 1
    44   23   45 1
    45   23   46 1
    46   24   28 1
    47   24   25 1
    48   24   47 1
    49   25   26 1
    50   25   48 1
    51   25   49 1
    52   26   27 1
    53   26   50 1
    54   26   51 1
    55   27   28 1
    56   27   52 1
    57   28   53 1
    58   28   54 1
@<TRIPOS>MOLECULE
CHEMBL217852__4
   54    58     0     0     0
SMALL
USER_CHARGES

@<TRIPOS>ATOM
      1 C1          1.3812    1.1348    3.7946 C.ar      1 <0>        -0.1177
      2 C2          2.3357    1.8788    3.1247 C.ar      1 <0>        -0.1170
      3 C3          3.2576    1.2515    2.3115 C.ar      1 <0>        -0.1090
      4 C4          3.2260   -0.1339    2.1663 C.ar      1 <0>        -0.0464
      5 C5          2.2627   -0.8785    2.8438 C.ar      1 <0>        -0.1106
      6 C6          1.3453   -0.2408    3.6541 C.ar      1 <0>        -0.1177
      7 C7          4.2144   -0.8139    1.2929 C.ar      1 <0>        -0.0258
      8 C8          5.1812   -0.0688    0.6196 C.ar      1 <0>        -0.1225
      9 C9          6.1000   -0.7028   -0.1925 C.ar      1 <0>        -0.0959
     10 C10         6.0652   -2.0765   -0.3411 C.ar      1 <0>        -0.1162
     11 C11         5.1055   -2.8270    0.3265 C.ar      1 <0>         0.1487
     12 C12         4.1822   -2.1980    1.1483 C.ar      1 <0>        -0.1357
     13 N1          5.0731   -4.2176    0.1732 N.am      1 <0>        -0.6712
     14 C13         6.2200   -4.9029   -0.0040 C.2       1 <0>         0.5185
     15 O1          7.2862   -4.3284    0.0621 O.2       1 <0>        -0.4965
     16 C14         6.1778   -6.3830   -0.2842 C.3       1 <0>        -0.1263
     17 C15         5.5599   -6.6658   -1.6732 C.3       1 <0>        -0.1470
     18 C16         6.7522   -6.7401   -2.6015 C.2       1 <0>         0.5152
     19 O2          6.6964   -6.6685   -3.8109 O.2       1 <0>        -0.5225
     20 N2          7.8823   -6.8964   -1.8908 N.am      1 <0>        -0.6025
     21 C17         7.6031   -6.9550   -0.4511 C.3       1 <0>         0.1100
     22 C18         9.2209   -6.9957   -2.4778 C.3       1 <0>         0.1567
     23 C19        10.2868   -7.1404   -1.3677 C.3       1 <0>        -0.1307
     24 C20        11.2022   -5.8891   -1.5347 C.3       1 <0>        -0.1045
     25 C21        10.3146   -4.6922   -1.0754 C.3       1 <0>        -0.1125
     26 C22         9.2487   -4.5475   -2.1855 C.3       1 <0>        -0.1210
     27 C23         9.5926   -5.6707   -3.2110 C.3       1 <0>        -0.1129
     28 C24        11.1573   -5.7026   -3.0924 C.3       1 <0>        -0.1230
     29 H1          0.6643    1.6293    4.4332 H         1 <0>         0.1236
     30 H2          2.3593    2.9526    3.2380 H         1 <0>         0.1253
     31 H3          4.0020    1.8334    1.7883 H         1 <0>         0.1264
     32 H4          2.2335   -1.9525    2.7345 H         1 <0>         0.1238
     33 H5          0.5981   -0.8169    4.1797 H         1 <0>         0.1247
     34 H6          5.2112    1.0048    0.7330 H         1 <0>         0.1273
     35 H7          6.8479   -0.1236   -0.7136 H         1 <0>         0.1288
     36 H8          6.7858   -2.5677   -0.9782 H         1 <0>         0.1349
     37 H9          3.4377   -2.7800    1.6712 H         1 <0>         0.1286
     38 H10         4.2252   -4.6883    0.1945 H         1 <0>         0.4123
     39 H11         5.6349   -6.9111    0.4997 H         1 <0>         0.1294
     40 H12         5.0226   -7.6142   -1.6658 H         1 <0>         0.1198
     41 H13         4.8966   -5.8528   -1.9684 H         1 <0>         0.1051
     42 H14         8.3209   -6.3451    0.0974 H         1 <0>         0.1034
     43 H15         7.6388   -7.9868   -0.1016 H         1 <0>         0.0838
     44 H16         9.2710   -7.8384   -3.1673 H         1 <0>         0.0803
     45 H17         9.8150   -7.1376   -0.3852 H         1 <0>         0.0787
     46 H18        10.8630   -8.0545   -1.5110 H         1 <0>         0.0740
     47 H19        12.1932   -5.9605   -1.0865 H         1 <0>         0.1002
     48 H20         9.8402   -4.9156   -0.1199 H         1 <0>         0.0684
     49 H21        10.9115   -3.7832   -1.0010 H         1 <0>         0.0577
     50 H22         8.2502   -4.6998   -1.7758 H         1 <0>         0.0835
     51 H23         9.3215   -3.5674   -2.6569 H         1 <0>         0.0529
     52 H24         9.1768   -5.5466   -4.2109 H         1 <0>         0.1004
     53 H25        11.6102   -4.7616   -3.4047 H         1 <0>         0.0731
     54 H26        11.5898   -6.5536   -3.6186 H         1 <0>         0.0697
@<TRIPOS>BOND
     1    1    6 ar
     2    1    2 ar
     3    1   29 1
     4    2    3 ar
     5    2   30 1
     6    3    4 ar
     7    3   31 1
     8    4    5 ar
     9    4    7 1
    10    5    6 ar
    11    5   32 1
    12    6   33 1
    13    7   12 ar
    14    7    8 ar
    15    8    9 ar
    16    8   34 1
    17    9   10 ar
    18    9   35 1
    19   10   11 ar
    20   10   36 1
    21   11   12 ar
    22   11   13 1
    23   12   37 1
    24   13   14 am
    25   13   38 1
    26   14   15 2
    27   14   16 1
    28   16   21 1
    29   16   17 1
    30   16   39 1
    31   17   18 1
    32   17   40 1
    33   17   41 1
    34   18   19 2
    35   18   20 am
    36   20   21 1
    37   20   22 1
    38   21   42 1
    39   21   43 1
    40   22   27 1
    41   22   23 1
    42   22   44 1
    43   23   24 1
    44   23   45 1
    45   23   46 1
    46   24   28 1
    47   24   25 1
    48   24   47 1
    49   25   26 1
    50   25   48 1
    51   25   49 1
    52   26   27 1
    53   26   50 1
    54   26   51 1
    55   27   28 1
    56   27   52 1
    57   28   53 1
    58   28   54 1
@<TRIPOS>MOLECULE
CHEMBL217852__5
   54    58     0     0     0
SMALL
USER_CHARGES

@<TRIPOS>ATOM
      1 C1          1.0000    1.4125    2.8718 C.ar      1 <0>        -0.1176
      2 C2          1.9110    2.1185    2.1070 C.ar      1 <0>        -0.1170
      3 C3          2.8605    1.4461    1.3646 C.ar      1 <0>        -0.1089
      4 C4          2.9007    0.0536    1.3869 C.ar      1 <0>        -0.0464
      5 C5          1.9809   -0.6526    2.1594 C.ar      1 <0>        -0.1106
      6 C6          1.0353    0.0300    2.8975 C.ar      1 <0>        -0.1177
      7 C7          3.9191   -0.6749    0.5903 C.ar      1 <0>        -0.0257
      8 C8          4.8423    0.0324   -0.1781 C.ar      1 <0>        -0.1225
      9 C9          5.7890   -0.6466   -0.9185 C.ar      1 <0>        -0.0958
     10 C10         5.8254   -2.0282   -0.9010 C.ar      1 <0>        -0.1171
     11 C11         4.9094   -2.7412   -0.1376 C.ar      1 <0>         0.1482
     12 C12         3.9585   -2.0662    0.6131 C.ar      1 <0>        -0.1355
     13 N1          4.9491   -4.1400   -0.1228 N.am      1 <0>        -0.6715
     14 C13         6.1291   -4.7819   -0.2318 C.2       1 <0>         0.5215
     15 O1          7.1642   -4.1499   -0.2462 O.2       1 <0>        -0.5036
     16 C14         6.1625   -6.2849   -0.3357 C.3       1 <0>        -0.1264
     17 C15         5.5523   -6.7608   -1.6744 C.3       1 <0>        -0.1461
     18 C16         6.7415   -6.8829   -2.6015 C.2       1 <0>         0.5152
     19 O2          6.6752   -6.9573   -3.8102 O.2       1 <0>        -0.5272
     20 N2          7.8823   -6.8964   -1.8908 N.am      1 <0>        -0.6026
     21 C17         7.6147   -6.7990   -0.4510 C.3       1 <0>         0.1086
     22 C18         9.2209   -6.9957   -2.4778 C.3       1 <0>         0.1516
     23 C19         9.9331   -8.2750   -1.9823 C.3       1 <0>        -0.1312
     24 C20        11.1970   -7.7565   -1.2306 C.3       1 <0>        -0.1033
     25 C21        12.1213   -7.2021   -2.3574 C.3       1 <0>        -0.1226
     26 C22        11.4091   -5.9228   -2.8529 C.3       1 <0>        -0.1215
     27 C23        10.1215   -5.8247   -1.9789 C.3       1 <0>        -0.1076
     28 C24        10.6450   -6.4185   -0.6236 C.3       1 <0>        -0.1311
     29 H1          0.2612    1.9428    3.4544 H         1 <0>         0.1236
     30 H2          1.8789    3.1979    2.0905 H         1 <0>         0.1253
     31 H3          3.5709    1.9984    0.7673 H         1 <0>         0.1264
     32 H4          2.0074   -1.7321    2.1799 H         1 <0>         0.1239
     33 H5          0.3218   -0.5164    3.4966 H         1 <0>         0.1247
     34 H6          4.8166    1.1120   -0.1944 H         1 <0>         0.1277
     35 H7          6.5032   -0.0967   -1.5134 H         1 <0>         0.1294
     36 H8          6.5676   -2.5548   -1.4825 H         1 <0>         0.1342
     37 H9          3.2479   -2.6185    1.2101 H         1 <0>         0.1291
     38 H10         4.1272   -4.6476   -0.0340 H         1 <0>         0.4126
     39 H11         5.6523   -6.7439    0.5112 H         1 <0>         0.1297
     40 H12         5.0652   -7.7278   -1.5493 H         1 <0>         0.1204
     41 H13         4.8459   -6.0232   -2.0552 H         1 <0>         0.1058
     42 H14         8.3028   -6.0928    0.0136 H         1 <0>         0.1075
     43 H15         7.7061   -7.7792    0.0168 H         1 <0>         0.0828
     44 H16         9.1590   -6.9904   -3.5661 H         1 <0>         0.0990
     45 H17         9.2874   -8.8301   -1.3018 H         1 <0>         0.0704
     46 H18        10.2231   -8.9000   -2.8270 H         1 <0>         0.0736
     47 H19        11.6519   -8.4532   -0.5265 H         1 <0>         0.1010
     48 H20        13.1050   -6.9582   -1.9562 H         1 <0>         0.0652
     49 H21        12.2091   -7.9261   -3.1674 H         1 <0>         0.0656
     50 H22        12.0426   -5.0499   -2.6954 H         1 <0>         0.0688
     51 H23        11.1467   -6.0179   -3.9066 H         1 <0>         0.0660
     52 H24         9.6478   -4.8439   -1.9367 H         1 <0>         0.1046
     53 H25         9.8359   -6.5944    0.0852 H         1 <0>         0.0750
     54 H26        11.4375   -5.8091   -0.1893 H         1 <0>         0.0723
@<TRIPOS>BOND
     1    1    6 ar
     2    1    2 ar
     3    1   29 1
     4    2    3 ar
     5    2   30 1
     6    3    4 ar
     7    3   31 1
     8    4    5 ar
     9    4    7 1
    10    5    6 ar
    11    5   32 1
    12    6   33 1
    13    7   12 ar
    14    7    8 ar
    15    8    9 ar
    16    8   34 1
    17    9   10 ar
    18    9   35 1
    19   10   11 ar
    20   10   36 1
    21   11   12 ar
    22   11   13 1
    23   12   37 1
    24   13   14 am
    25   13   38 1
    26   14   15 2
    27   14   16 1
    28   16   21 1
    29   16   17 1
    30   16   39 1
    31   17   18 1
    32   17   40 1
    33   17   41 1
    34   18   19 2
    35   18   20 am
    36   20   21 1
    37   20   22 1
    38   21   42 1
    39   21   43 1
    40   22   27 1
    41   22   23 1
    42   22   44 1
    43   23   24 1
    44   23   45 1
    45   23   46 1
    46   24   28 1
    47   24   25 1
    48   24   47 1
    49   25   26 1
    50   25   48 1
    51   25   49 1
    52   26   27 1
    53   26   50 1
    54   26   51 1
    55   27   28 1
    56   27   52 1
    57   28   53 1
    58   28   54 1
@<TRIPOS>MOLECULE
CHEMBL217852__6
   54    58     0     0     0
SMALL
USER_CHARGES

@<TRIPOS>ATOM
      1 C1          1.1028    1.3481    3.1249 C.ar      1 <0>        -0.1176
      2 C2          2.0262    2.0663    2.3868 C.ar      1 <0>        -0.1169
      3 C3          2.9687    1.4056    1.6252 C.ar      1 <0>        -0.1090
      4 C4          2.9891    0.0126    1.6010 C.ar      1 <0>        -0.0465
      5 C5          2.0569   -0.7058    2.3468 C.ar      1 <0>        -0.1106
      6 C6          1.1185   -0.0348    3.1046 C.ar      1 <0>        -0.1176
      7 C7          3.9998   -0.7033    0.7836 C.ar      1 <0>        -0.0257
      8 C8          4.9355    0.0161    0.0419 C.ar      1 <0>        -0.1224
      9 C9          5.8751   -0.6512   -0.7180 C.ar      1 <0>        -0.0957
     10 C10         5.8919   -2.0330   -0.7466 C.ar      1 <0>        -0.1172
     11 C11         4.9634   -2.7580   -0.0102 C.ar      1 <0>         0.1479
     12 C12         4.0196   -2.0950    0.7600 C.ar      1 <0>        -0.1354
     13 N1          4.9833   -4.1569   -0.0419 N.am      1 <0>        -0.6713
     14 C13         6.1545   -4.8115   -0.1688 C.2       1 <0>         0.5217
     15 O1          7.1984   -4.1940   -0.1608 O.2       1 <0>        -0.5049
     16 C14         6.1672   -6.3108   -0.3206 C.3       1 <0>        -0.1267
     17 C15         5.5539   -6.7350   -1.6752 C.3       1 <0>        -0.1459
     18 C16         6.7437   -6.8442   -2.6032 C.2       1 <0>         0.5155
     19 O2          6.6795   -6.8791   -3.8138 O.2       1 <0>        -0.5269
     20 N2          7.8823   -6.8964   -1.8908 N.am      1 <0>        -0.6028
     21 C17         7.6123   -6.8413   -0.4492 C.3       1 <0>         0.1136
     22 C18         9.2209   -6.9957   -2.4778 C.3       1 <0>         0.1527
     23 C19        10.1483   -5.9064   -1.8923 C.3       1 <0>        -0.1343
     24 C20        11.2931   -6.6990   -1.1904 C.3       1 <0>        -0.1021
     25 C21        12.1102   -7.3243   -2.3620 C.3       1 <0>        -0.1231
     26 C22        11.1828   -8.4136   -2.9476 C.3       1 <0>        -0.1205
     27 C23         9.8927   -8.3438   -2.0746 C.3       1 <0>        -0.1116
     28 C24        10.5052   -7.9576   -0.6821 C.3       1 <0>        -0.1293
     29 H1          0.3696    1.8691    3.7228 H         1 <0>         0.1236
     30 H2          2.0095    3.1460    2.4063 H         1 <0>         0.1254
     31 H3          3.6888    1.9673    1.0487 H         1 <0>         0.1264
     32 H4          2.0681   -1.7856    2.3314 H         1 <0>         0.1239
     33 H5          0.3954   -0.5907    3.6830 H         1 <0>         0.1247
     34 H6          4.9251    1.0959    0.0615 H         1 <0>         0.1278
     35 H7          6.5989   -0.0920   -1.2922 H         1 <0>         0.1294
     36 H8          6.6285   -2.5504   -1.3432 H         1 <0>         0.1341
     37 H9          3.2993   -2.6567    1.3362 H         1 <0>         0.1292
     38 H10         4.1541   -4.6554    0.0274 H         1 <0>         0.4128
     39 H11         5.6485   -6.7894    0.5100 H         1 <0>         0.1301
     40 H12         5.0530   -7.6986   -1.5821 H         1 <0>         0.1207
     41 H13         4.8588   -5.9758   -2.0338 H         1 <0>         0.1057
     42 H14         8.3091   -6.1600    0.0392 H         1 <0>         0.1010
     43 H15         7.6889   -7.8371   -0.0128 H         1 <0>         0.0848
     44 H16         9.1665   -6.9079   -3.5629 H         1 <0>         0.0984
     45 H17        10.5517   -5.2821   -2.6895 H         1 <0>         0.0723
     46 H18         9.6083   -5.2970   -1.1676 H         1 <0>         0.0817
     47 H19        11.8611   -6.1505   -0.4390 H         1 <0>         0.1012
     48 H20        12.3324   -6.5690   -3.1158 H         1 <0>         0.0658
     49 H21        13.0312   -7.7707   -1.9871 H         1 <0>         0.0651
     50 H22        10.9491   -8.1938   -3.9893 H         1 <0>         0.0665
     51 H23        11.6479   -9.3955   -2.8605 H         1 <0>         0.0686
     52 H24         9.2500   -9.2237   -2.1031 H         1 <0>         0.0997
     53 H25        11.1721   -8.7307   -0.3003 H         1 <0>         0.0723
     54 H26         9.7361   -7.6929    0.0435 H         1 <0>         0.0716
@<TRIPOS>BOND
     1    1    6 ar
     2    1    2 ar
     3    1   29 1
     4    2    3 ar
     5    2   30 1
     6    3    4 ar
     7    3   31 1
     8    4    5 ar
     9    4    7 1
    10    5    6 ar
    11    5   32 1
    12    6   33 1
    13    7   12 ar
    14    7    8 ar
    15    8    9 ar
    16    8   34 1
    17    9   10 ar
    18    9   35 1
    19   10   11 ar
    20   10   36 1
    21   11   12 ar
    22   11   13 1
    23   12   37 1
    24   13   14 am
    25   13   38 1
    26   14   15 2
    27   14   16 1
    28   16   21 1
    29   16   17 1
    30   16   39 1
    31   17   18 1
    32   17   40 1
    33   17   41 1
    34   18   19 2
    35   18   20 am
    36   20   21 1
    37   20   22 1
    38   21   42 1
    39   21   43 1
    40   22   27 1
    41   22   23 1
    42   22   44 1
    43   23   24 1
    44   23   45 1
    45   23   46 1
    46   24   28 1
    47   24   25 1
    48   24   47 1
    49   25   26 1
    50   25   48 1
    51   25   49 1
    52   26   27 1
    53   26   50 1
    54   26   51 1
    55   27   28 1
    56   27   52 1
    57   28   53 1
    58   28   54 1
@<TRIPOS>MOLECULE
CHEMBL217852__7
   54    58     0     0     0
SMALL
USER_CHARGES

@<TRIPOS>ATOM
      1 C1          1.2629    1.2397    3.5011 C.ar      1 <0>        -0.1176
      2 C2          2.2032    1.9726    2.7997 C.ar      1 <0>        -0.1170
      3 C3          3.1335    1.3293    2.0087 C.ar      1 <0>        -0.1089
      4 C4          3.1245   -0.0610    1.9178 C.ar      1 <0>        -0.0464
      5 C5          2.1754   -0.7944    2.6269 C.ar      1 <0>        -0.1106
      6 C6          1.2494   -0.1407    3.4145 C.ar      1 <0>        -0.1177
      7 C7          4.1220   -0.7582    1.0686 C.ar      1 <0>        -0.0258
      8 C8          5.0746   -0.0242    0.3637 C.ar      1 <0>        -0.1224
      9 C9          6.0018   -0.6741   -0.4258 C.ar      1 <0>        -0.0957
     10 C10         5.9895   -2.0530   -0.5206 C.ar      1 <0>        -0.1173
     11 C11         5.0440   -2.7926    0.1788 C.ar      1 <0>         0.1478
     12 C12         4.1124   -2.1473    0.9783 C.ar      1 <0>        -0.1354
     13 N1          5.0344   -4.1885    0.0801 N.am      1 <0>        -0.6714
     14 C13         6.1921   -4.8610   -0.0749 C.2       1 <0>         0.5217
     15 O1          7.2487   -4.2671   -0.0336 O.2       1 <0>        -0.5048
     16 C14         6.1735   -6.3511   -0.2993 C.3       1 <0>        -0.1257
     17 C15         5.5570   -6.6959   -1.6748 C.3       1 <0>        -0.1469
     18 C16         6.7480   -6.7854   -2.6033 C.2       1 <0>         0.5157
     19 O2          6.6880   -6.7601   -3.8144 O.2       1 <0>        -0.5226
     20 N2          7.8823   -6.8964   -1.8908 N.am      1 <0>        -0.6015
     21 C17         7.6076   -6.9055   -0.4491 C.3       1 <0>         0.1129
     22 C18         9.2209   -6.9957   -2.4778 C.3       1 <0>         0.1577
     23 C19        10.2879   -7.1292   -1.3673 C.3       1 <0>        -0.1306
     24 C20        10.9642   -8.5086   -1.6342 C.3       1 <0>        -0.1027
     25 C21         9.8727   -9.5574   -1.2603 C.3       1 <0>        -0.1201
     26 C22         8.8057   -9.4239   -2.3708 C.3       1 <0>        -0.1198
     27 C23         9.3531   -8.3070   -3.3111 C.3       1 <0>        -0.1102
     28 C24        10.8971   -8.5662   -3.2012 C.3       1 <0>        -0.1235
     29 H1          0.5393    1.7469    4.1221 H         1 <0>         0.1236
     30 H2          2.2092    3.0503    2.8708 H         1 <0>         0.1254
     31 H3          3.8667    1.9026    1.4609 H         1 <0>         0.1265
     32 H4          2.1638   -1.8722    2.5597 H         1 <0>         0.1238
     33 H5          0.5133   -0.7082    3.9645 H         1 <0>         0.1247
     34 H6          5.0870    1.0534    0.4351 H         1 <0>         0.1278
     35 H7          6.7388   -0.1035   -0.9714 H         1 <0>         0.1295
     36 H8          6.7166   -2.5568   -1.1402 H         1 <0>         0.1339
     37 H9          3.3789   -2.7206    1.5258 H         1 <0>         0.1292
     38 H10         4.1946   -4.6720    0.1232 H         1 <0>         0.4128
     39 H11         5.6414   -6.8582    0.5055 H         1 <0>         0.1299
     40 H12         5.0354   -7.6520   -1.6302 H         1 <0>         0.1198
     41 H13         4.8797   -5.9055   -1.9982 H         1 <0>         0.1055
     42 H14         8.3166   -6.2638    0.0740 H         1 <0>         0.1011
     43 H15         7.6612   -7.9228   -0.0613 H         1 <0>         0.0836
     44 H16         9.4265   -6.1263   -3.1023 H         1 <0>         0.0803
     45 H17        11.0201   -6.3255   -1.4453 H         1 <0>         0.0757
     46 H18         9.8165   -7.1210   -0.3845 H         1 <0>         0.0794
     47 H19        11.9488   -8.6506   -1.1887 H         1 <0>         0.1024
     48 H20        10.2957  -10.5620   -1.2586 H         1 <0>         0.0642
     49 H21         9.4397   -9.3248   -0.2874 H         1 <0>         0.0621
     50 H22         8.7042  -10.3629   -2.9151 H         1 <0>         0.0622
     51 H23         7.8482   -9.1257   -1.9439 H         1 <0>         0.0649
     52 H24         8.9286   -8.2787   -4.3147 H         1 <0>         0.1037
     53 H25        11.4793   -7.7698   -3.6648 H         1 <0>         0.0720
     54 H26        11.1755   -9.5471   -3.5865 H         1 <0>         0.0746
@<TRIPOS>BOND
     1    1    6 ar
     2    1    2 ar
     3    1   29 1
     4    2    3 ar
     5    2   30 1
     6    3    4 ar
     7    3   31 1
     8    4    5 ar
     9    4    7 1
    10    5    6 ar
    11    5   32 1
    12    6   33 1
    13    7   12 ar
    14    7    8 ar
    15    8    9 ar
    16    8   34 1
    17    9   10 ar
    18    9   35 1
    19   10   11 ar
    20   10   36 1
    21   11   12 ar
    22   11   13 1
    23   12   37 1
    24   13   14 am
    25   13   38 1
    26   14   15 2
    27   14   16 1
    28   16   21 1
    29   16   17 1
    30   16   39 1
    31   17   18 1
    32   17   40 1
    33   17   41 1
    34   18   19 2
    35   18   20 am
    36   20   21 1
    37   20   22 1
    38   21   42 1
    39   21   43 1
    40   22   27 1
    41   22   23 1
    42   22   44 1
    43   23   24 1
    44   23   45 1
    45   23   46 1
    46   24   28 1
    47   24   25 1
    48   24   47 1
    49   25   26 1
    50   25   48 1
    51   25   49 1
    52   26   27 1
    53   26   50 1
    54   26   51 1
    55   27   28 1
    56   27   52 1
    57   28   53 1
    58   28   54 1
@<TRIPOS>MOLECULE
CHEMBL426702
   62    67     0     0     0
SMALL
USER_CHARGES

@<TRIPOS>ATOM
      1 C1          0.6510    1.7353    0.3108 C.3       1 <0>         0.0544
      2 N1          0.3431    0.3054    0.2278 N.am      1 <0>        -0.6043
      3 C2          0.4455   -0.5365    1.4224 C.3       1 <0>         0.1510
      4 C3         -0.8276   -0.4313    2.2218 C.ar      1 <0>        -0.0889
      5 C4         -0.9966    0.6049    3.1383 C.ar      1 <0>        -0.0331
      6 C5          0.0113    1.5729    3.3381 C.ar      1 <0>        -0.1233
      7 C6         -0.1862    2.5693    4.2385 C.ar      1 <0>        -0.1072
      8 C7         -1.3649    2.6663    4.9790 C.ar      1 <0>        -0.1206
      9 C8         -2.3735    1.7693    4.8358 C.ar      1 <0>        -0.0990
     10 C9         -2.2356    0.7072    3.9162 C.ar      1 <0>        -0.0546
     11 C10        -3.2512   -0.2315    3.7444 C.ar      1 <0>        -0.0843
     12 C11        -3.0818   -1.2682    2.8285 C.ar      1 <0>        -0.0508
     13 C12        -1.8459   -1.3663    2.0451 C.ar      1 <0>        -0.0293
     14 C13        -1.7110   -2.4252    1.1214 C.ar      1 <0>        -0.1012
     15 C14        -2.7223   -3.3185    0.9742 C.ar      1 <0>        -0.1171
     16 C15        -3.9011   -3.2210    1.7144 C.ar      1 <0>        -0.1097
     17 C16        -4.0900   -2.2359    2.6291 C.ar      1 <0>        -0.1153
     18 C17        -0.0344   -0.2355   -0.9475 C.2       1 <0>         0.5295
     19 O1         -0.3795   -1.3971   -0.9974 O.2       1 <0>        -0.5216
     20 C18        -0.0276    0.6030   -2.1996 C.3       1 <0>        -0.1233
     21 C19        -1.3225    1.4407   -2.3116 C.3       1 <0>        -0.1421
     22 C20        -1.6402    1.4367   -3.7907 C.2       1 <0>         0.5212
     23 O2         -2.4075    2.1998   -4.3384 O.2       1 <0>        -0.5229
     24 N2         -0.9481    0.4648   -4.4096 N.am      1 <0>        -0.6058
     25 C21        -0.1172   -0.2853   -3.4603 C.3       1 <0>         0.1123
     26 C22        -1.0146    0.1894   -5.8469 C.3       1 <0>         0.1555
     27 C23        -0.1494   -1.0418   -6.2004 C.3       1 <0>        -0.1325
     28 C24         0.9265   -0.4970   -7.1887 C.3       1 <0>        -0.1024
     29 C25         1.8520    0.3946   -6.3055 C.3       1 <0>        -0.1210
     30 C26         0.9868    1.6259   -5.9521 C.3       1 <0>        -0.1207
     31 C27        -0.3799    1.3623   -6.6550 C.3       1 <0>        -0.1109
     32 C28         0.0979    0.6023   -7.9424 C.3       1 <0>        -0.1231
     33 H1          1.7232    1.8841    0.1828 H         1 <0>         0.0644
     34 H2          0.1139    2.2687   -0.4735 H         1 <0>         0.0768
     35 H3          0.3449    2.1169    1.2849 H         1 <0>         0.0865
     36 H4          0.6026   -1.5730    1.1240 H         1 <0>         0.1020
     37 H5          1.2856   -0.2025    2.0314 H         1 <0>         0.0913
     38 H6          0.9335    1.5208    2.7786 H         1 <0>         0.1307
     39 H7          0.5895    3.3061    4.3859 H         1 <0>         0.1226
     40 H8         -1.4774    3.4760    5.6848 H         1 <0>         0.1225
     41 H9         -3.2754    1.8674    5.4218 H         1 <0>         0.1284
     42 H10        -4.1635   -0.1564    4.3176 H         1 <0>         0.1329
     43 H11        -0.8091   -2.5236    0.5354 H         1 <0>         0.1539
     44 H12        -2.6118   -4.1257    0.2652 H         1 <0>         0.1204
     45 H13        -4.6789   -3.9549    1.5637 H         1 <0>         0.1207
     46 H14        -5.0119   -2.1838    3.1893 H         1 <0>         0.1271
     47 H15         0.8550    1.2416   -2.2343 H         1 <0>         0.1144
     48 H16        -2.1292    0.9734   -1.7469 H         1 <0>         0.1081
     49 H17        -1.1500    2.4584   -1.9612 H         1 <0>         0.1091
     50 H18         0.8765   -0.4499   -3.8771 H         1 <0>         0.0869
     51 H19        -0.5879   -1.2380   -3.2178 H         1 <0>         0.0952
     52 H20        -2.0480    0.0311   -6.1553 H         1 <0>         0.0829
     53 H21         0.3254   -1.4424   -5.3047 H         1 <0>         0.0796
     54 H22        -0.7569   -1.8069   -6.6839 H         1 <0>         0.0762
     55 H23         1.4199   -1.2414   -7.8137 H         1 <0>         0.1029
     56 H24         2.1419   -0.1386   -5.4001 H         1 <0>         0.0621
     57 H25         2.7349    0.6992   -6.8674 H         1 <0>         0.0649
     58 H26         0.8514    1.6980   -4.8729 H         1 <0>         0.0654
     59 H27         1.4444    2.5359   -6.3402 H         1 <0>         0.0626
     60 H28        -1.0146    2.2356   -6.8055 H         1 <0>         0.1033
     61 H29         0.7281    1.2269   -8.5756 H         1 <0>         0.0747
     62 H30        -0.7367    0.1755   -8.4986 H         1 <0>         0.0723
@<TRIPOS>BOND
     1    1    2 1
     2    1   33 1
     3    1   34 1
     4    1   35 1
     5    2    3 1
     6    2   18 am
     7    3    4 1
     8    3   36 1
     9    3   37 1
    10    4   13 ar
    11    4    5 ar
    12    5   10 ar
    13    5    6 ar
    14    6    7 ar
    15    6   38 1
    16    7    8 ar
    17    7   39 1
    18    8    9 ar
    19    8   40 1
    20    9   10 ar
    21    9   41 1
    22   10   11 ar
    23   11   12 ar
    24   11   42 1
    25   12   17 ar
    26   12   13 ar
    27   13   14 ar
    28   14   15 ar
    29   14   43 1
    30   15   16 ar
    31   15   44 1
    32   16   17 ar
    33   16   45 1
    34   17   46 1
    35   18   19 2
    36   18   20 1
    37   20   25 1
    38   20   21 1
    39   20   47 1
    40   21   22 1
    41   21   48 1
    42   21   49 1
    43   22   23 2
    44   22   24 am
    45   24   25 1
    46   24   26 1
    47   25   50 1
    48   25   51 1
    49   26   31 1
    50   26   27 1
    51   26   52 1
    52   27   28 1
    53   27   53 1
    54   27   54 1
    55   28   32 1
    56   28   29 1
    57   28   55 1
    58   29   30 1
    59   29   56 1
    60   29   57 1
    61   30   31 1
    62   30   58 1
    63   30   59 1
    64   31   32 1
    65   31   60 1
    66   32   61 1
    67   32   62 1
@<TRIPOS>MOLECULE
CHEMBL426702__1
   62    67     0     0     0
SMALL
USER_CHARGES

@<TRIPOS>ATOM
      1 C1          0.5152    1.6979    0.2356 C.3       1 <0>         0.0542
      2 N1          0.3120    0.2494    0.1531 N.am      1 <0>        -0.6043
      3 C2          0.4638   -0.5810    1.3504 C.3       1 <0>         0.1509
      4 C3         -0.8176   -0.5583    2.1432 C.ar      1 <0>        -0.0888
      5 C4         -1.0584    0.4655    3.0577 C.ar      1 <0>        -0.0332
      6 C5         -0.1167    1.4972    3.2615 C.ar      1 <0>        -0.1230
      7 C6         -0.3833    2.4794    4.1597 C.ar      1 <0>        -0.1073
      8 C7         -1.5695    2.5001    4.8941 C.ar      1 <0>        -0.1204
      9 C8         -2.5168    1.5391    4.7469 C.ar      1 <0>        -0.0992
     10 C9         -2.3054    0.4875    3.8293 C.ar      1 <0>        -0.0545
     11 C10        -3.2568   -0.5156    3.6534 C.ar      1 <0>        -0.0843
     12 C11        -3.0155   -1.5398    2.7397 C.ar      1 <0>        -0.0507
     13 C12        -1.7719   -1.5578    1.9626 C.ar      1 <0>        -0.0294
     14 C13        -1.5635   -2.6064    1.0408 C.ar      1 <0>        -0.1019
     15 C14        -2.5138   -3.5639    0.8895 C.ar      1 <0>        -0.1170
     16 C15        -3.7002   -3.5428    1.6237 C.ar      1 <0>        -0.1098
     17 C16        -3.9575   -2.5712    2.5363 C.ar      1 <0>        -0.1152
     18 C17        -0.0147   -0.3192   -1.0244 C.2       1 <0>         0.5294
     19 O1         -0.2701   -1.5037   -1.0757 O.2       1 <0>        -0.5219
     20 C18        -0.0626    0.5168   -2.2773 C.3       1 <0>        -0.1239
     21 C19        -1.3974    1.2911   -2.3753 C.3       1 <0>        -0.1421
     22 C20        -1.7314    1.2696   -3.8506 C.2       1 <0>         0.5207
     23 O2         -2.5407    1.9941   -4.3902 O.2       1 <0>        -0.5269
     24 N2         -1.0004    0.3311   -4.4765 N.am      1 <0>        -0.6071
     25 C21        -0.1236   -0.3766   -3.5361 C.3       1 <0>         0.1102
     26 C22        -1.0699    0.0508   -5.9127 C.3       1 <0>         0.1515
     27 C23        -1.4955   -1.4153   -6.1556 C.3       1 <0>        -0.1331
     28 C24        -0.2972   -2.0514   -6.9243 C.3       1 <0>        -0.1014
     29 C25        -0.3425   -1.3888   -8.3351 C.3       1 <0>        -0.1232
     30 C26         0.0830    0.0773   -8.0922 C.3       1 <0>        -0.1202
     31 C27         0.3454    0.1625   -6.5575 C.3       1 <0>        -0.1113
     32 C28         0.9056   -1.2769   -6.2786 C.3       1 <0>        -0.1347
     33 H1          1.5772    1.9221    0.1350 H         1 <0>         0.0646
     34 H2         -0.0372    2.1886   -0.5657 H         1 <0>         0.0776
     35 H3          0.1570    2.0607    1.1990 H         1 <0>         0.0858
     36 H4          0.6905   -1.6056    1.0556 H         1 <0>         0.1023
     37 H5          1.2768   -0.1907    1.9626 H         1 <0>         0.0912
     38 H6          0.8098    1.5048    2.7066 H         1 <0>         0.1306
     39 H7          0.3421    3.2653    4.3101 H         1 <0>         0.1227
     40 H8         -1.7382    3.3013    5.5983 H         1 <0>         0.1225
     41 H9         -3.4262    1.5787    5.3282 H         1 <0>         0.1284
     42 H10        -4.1749   -0.4995    4.2219 H         1 <0>         0.1329
     43 H11        -0.6542   -2.6464    0.4595 H         1 <0>         0.1541
     44 H12        -2.3473   -4.3628    0.1821 H         1 <0>         0.1204
     45 H13        -4.4278   -4.3259    1.4699 H         1 <0>         0.1207
     46 H14        -4.8837   -2.5789    3.0918 H         1 <0>         0.1271
     47 H15         0.7879    1.1971   -2.3227 H         1 <0>         0.1157
     48 H16        -2.1742    0.7864   -1.8009 H         1 <0>         0.1082
     49 H17        -1.2701    2.3164   -2.0279 H         1 <0>         0.1100
     50 H18         0.8720   -0.4939   -3.9640 H         1 <0>         0.0917
     51 H19        -0.5452   -1.3505   -3.2873 H         1 <0>         0.0947
     52 H20        -1.7644    0.7355   -6.3995 H         1 <0>         0.1004
     53 H21        -1.6529   -1.9275   -5.2064 H         1 <0>         0.0729
     54 H22        -2.3996   -1.4528   -6.7632 H         1 <0>         0.0738
     55 H23        -0.2386   -3.1395   -6.8991 H         1 <0>         0.1017
     56 H24         0.3586   -1.8813   -9.0089 H         1 <0>         0.0656
     57 H25        -1.3532   -1.4288   -8.7413 H         1 <0>         0.0662
     58 H26         0.9933    0.3056   -8.6465 H         1 <0>         0.0691
     59 H27        -0.7184    0.7581   -8.3790 H         1 <0>         0.0670
     60 H28         0.9559    1.0018   -6.2243 H         1 <0>         0.1007
     61 H29         0.9972   -1.4803   -5.2117 H         1 <0>         0.0767
     62 H30         1.8411   -1.4609   -6.8069 H         1 <0>         0.0730
@<TRIPOS>BOND
     1    1    2 1
     2    1   33 1
     3    1   34 1
     4    1   35 1
     5    2    3 1
     6    2   18 am
     7    3    4 1
     8    3   36 1
     9    3   37 1
    10    4   13 ar
    11    4    5 ar
    12    5   10 ar
    13    5    6 ar
    14    6    7 ar
    15    6   38 1
    16    7    8 ar
    17    7   39 1
    18    8    9 ar
    19    8   40 1
    20    9   10 ar
    21    9   41 1
    22   10   11 ar
    23   11   12 ar
    24   11   42 1
    25   12   17 ar
    26   12   13 ar
    27   13   14 ar
    28   14   15 ar
    29   14   43 1
    30   15   16 ar
    31   15   44 1
    32   16   17 ar
    33   16   45 1
    34   17   46 1
    35   18   19 2
    36   18   20 1
    37   20   25 1
    38   20   21 1
    39   20   47 1
    40   21   22 1
    41   21   48 1
    42   21   49 1
    43   22   23 2
    44   22   24 am
    45   24   25 1
    46   24   26 1
    47   25   50 1
    48   25   51 1
    49   26   31 1
    50   26   27 1
    51   26   52 1
    52   27   28 1
    53   27   53 1
    54   27   54 1
    55   28   32 1
    56   28   29 1
    57   28   55 1
    58   29   30 1
    59   29   56 1
    60   29   57 1
    61   30   31 1
    62   30   58 1
    63   30   59 1
    64   31   32 1
    65   31   60 1
    66   32   61 1
    67   32   62 1
@<TRIPOS>MOLECULE
CHEMBL426702__2
   62    67     0     0     0
SMALL
USER_CHARGES

@<TRIPOS>ATOM
      1 C1          0.6399    1.6102    0.3022 C.3       1 <0>         0.0545
      2 N1          0.4231    0.1734    0.1157 N.am      1 <0>        -0.6046
      3 C2          0.5778   -0.7437    1.2476 C.3       1 <0>         0.1512
      4 C3         -0.6996   -0.7754    2.0466 C.ar      1 <0>        -0.0888
      5 C4         -0.9331    0.1802    3.0339 C.ar      1 <0>        -0.0333
      6 C5          0.0123    1.1924    3.3067 C.ar      1 <0>        -0.1229
      7 C6         -0.2472    2.1078    4.2749 C.ar      1 <0>        -0.1074
      8 C7         -1.4297    2.0780    5.0150 C.ar      1 <0>        -0.1205
      9 C8         -2.3803    1.1324    4.8037 C.ar      1 <0>        -0.0992
     10 C9         -2.1762    0.1493    3.8114 C.ar      1 <0>        -0.0545
     11 C10        -3.1310   -0.8363    3.5686 C.ar      1 <0>        -0.0844
     12 C11        -2.8971   -1.7924    2.5820 C.ar      1 <0>        -0.0507
     13 C12        -1.6574   -1.7571    1.7992 C.ar      1 <0>        -0.0293
     14 C13        -1.4564   -2.7369    0.8031 C.ar      1 <0>        -0.1008
     15 C14        -2.4098   -3.6788    0.5880 C.ar      1 <0>        -0.1172
     16 C15        -3.5925   -3.7081    1.3279 C.ar      1 <0>        -0.1096
     17 C16        -3.8428   -2.8044    2.3095 C.ar      1 <0>        -0.1155
     18 C17         0.0813   -0.3047   -1.0972 C.2       1 <0>         0.5295
     19 O1         -0.1976   -1.4775   -1.2301 O.2       1 <0>        -0.5211
     20 C18         0.0459    0.6179   -2.2882 C.3       1 <0>        -0.1245
     21 C19        -1.2847    1.4040   -2.3398 C.3       1 <0>        -0.1418
     22 C20        -1.6087    1.4885   -3.8151 C.2       1 <0>         0.5210
     23 O2         -2.4110    2.2533   -4.3074 O.2       1 <0>        -0.5265
     24 N2         -0.8778    0.5928   -4.5009 N.am      1 <0>        -0.6072
     25 C21        -0.0107   -0.1840   -3.6073 C.3       1 <0>         0.1145
     26 C22        -0.9389    0.4149   -5.9538 C.3       1 <0>         0.1513
     27 C23         0.4830    0.4376   -6.5597 C.3       1 <0>        -0.1317
     28 C24         0.6524   -0.9645   -7.2205 C.3       1 <0>        -0.1030
     29 C25        -0.3019   -0.9330   -8.4532 C.3       1 <0>        -0.1225
     30 C26        -1.7239   -0.9557   -7.8472 C.3       1 <0>        -0.1211
     31 C27        -1.4947   -0.9988   -6.3055 C.3       1 <0>        -0.1115
     32 C28        -0.1807   -1.8539   -6.2313 C.3       1 <0>        -0.1295
     33 H1          1.7047    1.8301    0.2246 H         1 <0>         0.0645
     34 H2          0.0981    2.1621   -0.4659 H         1 <0>         0.0776
     35 H3          0.2783    1.9075    1.2866 H         1 <0>         0.0855
     36 H4          0.7993   -1.7445    0.8768 H         1 <0>         0.1019
     37 H5          1.3952   -0.4024    1.8827 H         1 <0>         0.0913
     38 H6          0.9360    1.2379    2.7491 H         1 <0>         0.1305
     39 H7          0.4809    2.8791    4.4779 H         1 <0>         0.1226
     40 H8         -1.5927    2.8267    5.7761 H         1 <0>         0.1224
     41 H9         -3.2866    1.1319    5.3910 H         1 <0>         0.1283
     42 H10        -4.0463   -0.8593    4.1415 H         1 <0>         0.1328
     43 H11        -0.5501   -2.7369    0.2157 H         1 <0>         0.1539
     44 H12        -2.2490   -4.4249   -0.1761 H         1 <0>         0.1204
     45 H13        -4.3229   -4.4764    1.1217 H         1 <0>         0.1206
     46 H14        -4.7661   -2.8501    2.8678 H         1 <0>         0.1270
     47 H15         0.8997    1.2954   -2.2799 H         1 <0>         0.1151
     48 H16        -2.0677    0.8639   -1.8075 H         1 <0>         0.1086
     49 H17        -1.1550    2.4015   -1.9200 H         1 <0>         0.1097
     50 H18         0.9872   -0.2759   -4.0360 H         1 <0>         0.0854
     51 H19        -0.4385   -1.1709   -3.4307 H         1 <0>         0.0968
     52 H20        -1.5585    1.1899   -6.4050 H         1 <0>         0.1001
     53 H21         0.5637    1.2237   -7.3105 H         1 <0>         0.0751
     54 H22         1.2275    0.5811   -5.7766 H         1 <0>         0.0719
     55 H23         1.6781   -1.2827   -7.4069 H         1 <0>         0.1017
     56 H24        -0.1488   -0.0203   -9.0290 H         1 <0>         0.0660
     57 H25        -0.1420   -1.8103   -9.0800 H         1 <0>         0.0656
     58 H26        -2.2698   -0.0542   -8.1252 H         1 <0>         0.0667
     59 H27        -2.2630   -1.8441   -8.1762 H         1 <0>         0.0688
     60 H28        -2.3395   -1.3409   -5.7076 H         1 <0>         0.1001
     61 H29        -0.3279   -2.8636   -6.6144 H         1 <0>         0.0727
     62 H30         0.2467   -1.8604   -5.2286 H         1 <0>         0.0734
@<TRIPOS>BOND
     1    1    2 1
     2    1   33 1
     3    1   34 1
     4    1   35 1
     5    2    3 1
     6    2   18 am
     7    3    4 1
     8    3   36 1
     9    3   37 1
    10    4   13 ar
    11    4    5 ar
    12    5   10 ar
    13    5    6 ar
    14    6    7 ar
    15    6   38 1
    16    7    8 ar
    17    7   39 1
    18    8    9 ar
    19    8   40 1
    20    9   10 ar
    21    9   41 1
    22   10   11 ar
    23   11   12 ar
    24   11   42 1
    25   12   17 ar
    26   12   13 ar
    27   13   14 ar
    28   14   15 ar
    29   14   43 1
    30   15   16 ar
    31   15   44 1
    32   16   17 ar
    33   16   45 1
    34   17   46 1
    35   18   19 2
    36   18   20 1
    37   20   25 1
    38   20   21 1
    39   20   47 1
    40   21   22 1
    41   21   48 1
    42   21   49 1
    43   22   23 2
    44   22   24 am
    45   24   25 1
    46   24   26 1
    47   25   50 1
    48   25   51 1
    49   26   31 1
    50   26   27 1
    51   26   52 1
    52   27   28 1
    53   27   53 1
    54   27   54 1
    55   28   32 1
    56   28   29 1
    57   28   55 1
    58   29   30 1
    59   29   56 1
    60   29   57 1
    61   30   31 1
    62   30   58 1
    63   30   59 1
    64   31   32 1
    65   31   60 1
    66   32   61 1
    67   32   62 1
@<TRIPOS>MOLECULE
CHEMBL426702__3
   62    67     0     0     0
SMALL
USER_CHARGES

@<TRIPOS>ATOM
      1 C1          0.7603    1.9442    0.2956 C.3       1 <0>         0.0545
      2 N1          0.4575    0.5114    0.3378 N.am      1 <0>        -0.6044
      3 C2          0.6445   -0.2405    1.5812 C.3       1 <0>         0.1513
      4 C3         -0.5789   -0.0898    2.4481 C.ar      1 <0>        -0.0889
      5 C4         -0.7071    1.0095    3.2952 C.ar      1 <0>        -0.0331
      6 C5          0.2965    2.0000    3.3609 C.ar      1 <0>        -0.1235
      7 C6          0.1395    3.0581    4.1966 C.ar      1 <0>        -0.1073
      8 C7         -0.9930    3.1972    4.9997 C.ar      1 <0>        -0.1206
      9 C8         -1.9950    2.2816    4.9852 C.ar      1 <0>        -0.0991
     10 C9         -1.8977    1.1560    4.1389 C.ar      1 <0>        -0.0546
     11 C10        -2.9077    0.1965    4.0995 C.ar      1 <0>        -0.0844
     12 C11        -2.7790   -0.9031    3.2531 C.ar      1 <0>        -0.0507
     13 C12        -1.5920   -1.0459    2.4038 C.ar      1 <0>        -0.0291
     14 C13        -1.4978   -2.1686    1.5533 C.ar      1 <0>        -0.1002
     15 C14        -2.5028   -3.0809    1.5348 C.ar      1 <0>        -0.1172
     16 C15        -3.6355   -2.9413    2.3376 C.ar      1 <0>        -0.1095
     17 C16        -3.7829   -1.8934    3.1878 C.ar      1 <0>        -0.1155
     18 C17         0.0069   -0.1149   -0.7672 C.2       1 <0>         0.5293
     19 O1         -0.3347   -1.2772   -0.7088 O.2       1 <0>        -0.5212
     20 C18        -0.0725    0.6289   -2.0755 C.3       1 <0>        -0.1237
     21 C19        -1.3857    1.4396   -2.1723 C.3       1 <0>        -0.1420
     22 C20        -1.7877    1.3223   -3.6260 C.2       1 <0>         0.5212
     23 O2         -2.5979    2.0330   -4.1822 O.2       1 <0>        -0.5221
     24 N2         -1.1158    0.3161   -4.2118 N.am      1 <0>        -0.6066
     25 C21        -0.2192   -0.3511   -3.2606 C.3       1 <0>         0.1135
     26 C22        -1.2601   -0.0654   -5.6188 C.3       1 <0>         0.1558
     27 C23        -0.4047   -1.3152   -5.9287 C.3       1 <0>        -0.1321
     28 C24        -1.4342   -2.3948   -6.3826 C.3       1 <0>        -0.1020
     29 C25        -2.2129   -2.7624   -5.0827 C.3       1 <0>        -0.1197
     30 C26        -3.0682   -1.5127   -4.7728 C.3       1 <0>        -0.1197
     31 C27        -2.7258   -0.5076   -5.9146 C.3       1 <0>        -0.1096
     32 C28        -2.4946   -1.4961   -7.1116 C.3       1 <0>        -0.1233
     33 H1          1.8188    2.0856    0.0776 H         1 <0>         0.0644
     34 H2          0.1625    2.4191   -0.4823 H         1 <0>         0.0766
     35 H3          0.5248    2.3939    1.2602 H         1 <0>         0.0867
     36 H4          0.7976   -1.2943    1.3489 H         1 <0>         0.1017
     37 H5          1.5153    0.1450    2.1114 H         1 <0>         0.0914
     38 H6          1.1835    1.9163    2.7505 H         1 <0>         0.1309
     39 H7          0.9117    3.8119    4.2413 H         1 <0>         0.1226
     40 H8         -1.0744    4.0556    5.6500 H         1 <0>         0.1225
     41 H9         -2.8608    2.4132    5.6173 H         1 <0>         0.1284
     42 H10        -3.7842    0.3043    4.7211 H         1 <0>         0.1328
     43 H11        -0.6321   -2.3007    0.9213 H         1 <0>         0.1538
     44 H12        -2.4237   -3.9371    0.8813 H         1 <0>         0.1202
     45 H13        -4.4100   -3.6925    2.2895 H         1 <0>         0.1205
     46 H14        -4.6695   -1.8097    3.7988 H         1 <0>         0.1269
     47 H15         0.7958    1.2743   -2.2082 H         1 <0>         0.1149
     48 H16        -2.1506    1.0050   -1.5288 H         1 <0>         0.1076
     49 H17        -1.2106    2.4824   -1.9079 H         1 <0>         0.1090
     50 H18         0.7515   -0.5335   -3.7216 H         1 <0>         0.0853
     51 H19        -0.6590   -1.2892   -2.9221 H         1 <0>         0.0958
     52 H20        -0.9748    0.7628   -6.2675 H         1 <0>         0.0809
     53 H21         0.3017   -1.1027   -6.7312 H         1 <0>         0.0754
     54 H22         0.1231   -1.6457   -5.0342 H         1 <0>         0.0794
     55 H23        -1.0295   -3.2264   -6.9594 H         1 <0>         0.1023
     56 H24        -2.8530   -3.6277   -5.2550 H         1 <0>         0.0634
     57 H25        -1.5180   -2.9593   -4.2663 H         1 <0>         0.0642
     58 H26        -4.1288   -1.7636   -4.7928 H         1 <0>         0.0611
     59 H27        -2.7939   -1.0951   -3.8040 H         1 <0>         0.0657
     60 H28        -3.4437    0.2973   -6.0721 H         1 <0>         0.1041
     61 H29        -2.0744   -0.9927   -7.9823 H         1 <0>         0.0717
     62 H30        -3.3979   -2.0520   -7.3630 H         1 <0>         0.0745
@<TRIPOS>BOND
     1    1    2 1
     2    1   33 1
     3    1   34 1
     4    1   35 1
     5    2    3 1
     6    2   18 am
     7    3    4 1
     8    3   36 1
     9    3   37 1
    10    4   13 ar
    11    4    5 ar
    12    5   10 ar
    13    5    6 ar
    14    6    7 ar
    15    6   38 1
    16    7    8 ar
    17    7   39 1
    18    8    9 ar
    19    8   40 1
    20    9   10 ar
    21    9   41 1
    22   10   11 ar
    23   11   12 ar
    24   11   42 1
    25   12   17 ar
    26   12   13 ar
    27   13   14 ar
    28   14   15 ar
    29   14   43 1
    30   15   16 ar
    31   15   44 1
    32   16   17 ar
    33   16   45 1
    34   17   46 1
    35   18   19 2
    36   18   20 1
    37   20   25 1
    38   20   21 1
    39   20   47 1
    40   21   22 1
    41   21   48 1
    42   21   49 1
    43   22   23 2
    44   22   24 am
    45   24   25 1
    46   24   26 1
    47   25   50 1
    48   25   51 1
    49   26   31 1
    50   26   27 1
    51   26   52 1
    52   27   28 1
    53   27   53 1
    54   27   54 1
    55   28   32 1
    56   28   29 1
    57   28   55 1
    58   29   30 1
    59   29   56 1
    60   29   57 1
    61   30   31 1
    62   30   58 1
    63   30   59 1
    64   31   32 1
    65   31   60 1
    66   32   61 1
    67   32   62 1
@<TRIPOS>MOLECULE
CHEMBL426702__4
   62    67     0     0     0
SMALL
USER_CHARGES

@<TRIPOS>ATOM
      1 C1         -0.1031    1.7756    0.0011 C.3       1 <0>         0.0571
      2 N1          0.0544    0.3396    0.2444 N.am      1 <0>        -0.6048
      3 C2          0.1060   -0.1694    1.6172 C.3       1 <0>         0.1514
      4 C3         -1.2962   -0.3502    2.1389 C.ar      1 <0>        -0.0861
      5 C4         -1.9276   -1.5886    2.0386 C.ar      1 <0>        -0.0297
      6 C5         -1.2749   -2.6940    1.4515 C.ar      1 <0>        -0.0995
      7 C6         -1.9188   -3.8862    1.3702 C.ar      1 <0>        -0.1175
      8 C7         -3.2173   -4.0534    1.8528 C.ar      1 <0>        -0.1091
      9 C8         -3.9017   -3.0322    2.4284 C.ar      1 <0>        -0.1164
     10 C9         -3.2922   -1.7644    2.5463 C.ar      1 <0>        -0.0501
     11 C10        -3.9662   -0.6941    3.1314 C.ar      1 <0>        -0.0859
     12 C11        -3.3351    0.5444    3.2309 C.ar      1 <0>        -0.0540
     13 C12        -1.9678    0.7184    2.7301 C.ar      1 <0>        -0.0341
     14 C13        -1.3565    1.9848    2.8535 C.ar      1 <0>        -0.1224
     15 C14        -2.0391    3.0042    3.4345 C.ar      1 <0>        -0.1079
     16 C15        -3.3374    2.8367    3.9175 C.ar      1 <0>        -0.1201
     17 C16        -3.9883    1.6496    3.8180 C.ar      1 <0>        -0.1000
     18 C17         0.1519   -0.5133   -0.7946 C.2       1 <0>         0.5221
     19 O1          0.1949   -1.7089   -0.5957 O.2       1 <0>        -0.5116
     20 C18         0.2075    0.0187   -2.2035 C.3       1 <0>        -0.1252
     21 C19         1.5254    0.7882   -2.4528 C.3       1 <0>        -0.1461
     22 C20         2.4574   -0.2513   -3.0354 C.2       1 <0>         0.5163
     23 O2          3.6625   -0.1387   -3.1123 O.2       1 <0>        -0.5251
     24 N2          1.7556   -1.3182   -3.4550 N.am      1 <0>        -0.6014
     25 C21         0.3177   -1.1342   -3.2258 C.3       1 <0>         0.1109
     26 C22         2.3497   -2.5113   -4.0630 C.3       1 <0>         0.1573
     27 C23         1.2530   -3.5475   -4.3995 C.3       1 <0>        -0.1305
     28 C24         1.6218   -4.8018   -3.5498 C.3       1 <0>        -0.1045
     29 C25         1.3254   -4.3778   -2.0789 C.3       1 <0>        -0.1115
     30 C26         2.4221   -3.3416   -1.7424 C.3       1 <0>        -0.1208
     31 C27         3.2778   -3.2371   -3.0417 C.3       1 <0>        -0.1127
     32 C28         3.1888   -4.7134   -3.5671 C.3       1 <0>        -0.1232
     33 H1          0.8793    2.2444   -0.0559 H         1 <0>         0.0636
     34 H2         -0.6338    1.9288   -0.9386 H         1 <0>         0.0752
     35 H3         -0.6720    2.2221    0.8166 H         1 <0>         0.0859
     36 H4          0.6249   -1.1279    1.6301 H         1 <0>         0.1015
     37 H5          0.6397    0.5412    2.2484 H         1 <0>         0.0894
     38 H6         -0.2700   -2.5918    1.0694 H         1 <0>         0.1556
     39 H7         -1.4129   -4.7274    0.9197 H         1 <0>         0.1195
     40 H8         -3.6903   -5.0204    1.7658 H         1 <0>         0.1199
     41 H9         -4.9060   -3.1885    2.7934 H         1 <0>         0.1264
     42 H10        -4.9712   -0.8236    3.5049 H         1 <0>         0.1323
     43 H11        -0.3523    2.1416    2.4883 H         1 <0>         0.1305
     44 H12        -1.5646    3.9701    3.5257 H         1 <0>         0.1225
     45 H13        -3.8417    3.6765    4.3724 H         1 <0>         0.1223
     46 H14        -4.9935    1.5472    4.1995 H         1 <0>         0.1282
     47 H15        -0.6577    0.6468   -2.4155 H         1 <0>         0.1232
     48 H16         1.3653    1.5985   -3.1640 H         1 <0>         0.1160
     49 H17         1.9242    1.1755   -1.5152 H         1 <0>         0.1056
     50 H18        -0.1185   -2.0450   -2.8156 H         1 <0>         0.1032
     51 H19        -0.1808   -0.8622   -4.1562 H         1 <0>         0.0795
     52 H20         2.9083   -2.2420   -4.9594 H         1 <0>         0.0788
     53 H21         0.2719   -3.1692   -4.1126 H         1 <0>         0.0788
     54 H22         1.2721   -3.7895   -5.4622 H         1 <0>         0.0728
     55 H23         1.1890   -5.7458   -3.8810 H         1 <0>         0.0991
     56 H24         0.3376   -3.9228   -2.0063 H         1 <0>         0.0696
     57 H25         1.3984   -5.2379   -1.4134 H         1 <0>         0.0564
     58 H26         1.9734   -2.3771   -1.5044 H         1 <0>         0.0869
     59 H27         3.0341   -3.6923   -0.9115 H         1 <0>         0.0516
     60 H28         4.2760   -2.8161   -2.9222 H         1 <0>         0.0994
     61 H29         3.6458   -5.4216   -2.8759 H         1 <0>         0.0725
     62 H30         3.5928   -4.8139   -4.5744 H         1 <0>         0.0688
@<TRIPOS>BOND
     1    1    2 1
     2    1   33 1
     3    1   34 1
     4    1   35 1
     5    2    3 1
     6    2   18 am
     7    3    4 1
     8    3   36 1
     9    3   37 1
    10    4   13 ar
    11    4    5 ar
    12    5   10 ar
    13    5    6 ar
    14    6    7 ar
    15    6   38 1
    16    7    8 ar
    17    7   39 1
    18    8    9 ar
    19    8   40 1
    20    9   10 ar
    21    9   41 1
    22   10   11 ar
    23   11   12 ar
    24   11   42 1
    25   12   17 ar
    26   12   13 ar
    27   13   14 ar
    28   14   15 ar
    29   14   43 1
    30   15   16 ar
    31   15   44 1
    32   16   17 ar
    33   16   45 1
    34   17   46 1
    35   18   19 2
    36   18   20 1
    37   20   25 1
    38   20   21 1
    39   20   47 1
    40   21   22 1
    41   21   48 1
    42   21   49 1
    43   22   23 2
    44   22   24 am
    45   24   25 1
    46   24   26 1
    47   25   50 1
    48   25   51 1
    49   26   31 1
    50   26   27 1
    51   26   52 1
    52   27   28 1
    53   27   53 1
    54   27   54 1
    55   28   32 1
    56   28   29 1
    57   28   55 1
    58   29   30 1
    59   29   56 1
    60   29   57 1
    61   30   31 1
    62   30   58 1
    63   30   59 1
    64   31   32 1
    65   31   60 1
    66   32   61 1
    67   32   62 1
@<TRIPOS>MOLECULE
CHEMBL426702__5
   62    67     0     0     0
SMALL
USER_CHARGES

@<TRIPOS>ATOM
      1 C1         -0.0585    1.7806   -0.0613 C.3       1 <0>         0.0573
      2 N1         -0.0617    0.3287    0.1345 N.am      1 <0>        -0.6057
      3 C2         -0.0470   -0.2277    1.4896 C.3       1 <0>         0.1509
      4 C3         -1.4521   -0.2636    2.0333 C.ar      1 <0>        -0.0864
      5 C4         -2.2243   -1.4167    1.9053 C.ar      1 <0>        -0.0297
      6 C5         -1.7137   -2.5690    1.2696 C.ar      1 <0>        -0.1006
      7 C6         -2.4927   -3.6755    1.1625 C.ar      1 <0>        -0.1175
      8 C7         -3.7938   -3.7084    1.6654 C.ar      1 <0>        -0.1092
      9 C8         -4.3458   -2.6357    2.2875 C.ar      1 <0>        -0.1161
     10 C9         -3.5916   -1.4515    2.4343 C.ar      1 <0>        -0.0502
     11 C10        -4.1275   -0.3316    3.0674 C.ar      1 <0>        -0.0857
     12 C11        -3.3556    0.8218    3.1945 C.ar      1 <0>        -0.0540
     13 C12        -1.9856    0.8542    2.6722 C.ar      1 <0>        -0.0340
     14 C13        -1.2297    2.0366    2.8245 C.ar      1 <0>        -0.1224
     15 C14        -1.7800    3.1071    3.4520 C.ar      1 <0>        -0.1078
     16 C15        -3.0810    3.0738    3.9553 C.ar      1 <0>        -0.1201
     17 C16        -3.8666    1.9738    3.8303 C.ar      1 <0>        -0.0998
     18 C17        -0.0783   -0.4950   -0.9321 C.2       1 <0>         0.5242
     19 O1         -0.1685   -1.6937   -0.7712 O.2       1 <0>        -0.5177
     20 C18         0.0154    0.0733   -2.3246 C.3       1 <0>        -0.1250
     21 C19         1.4082    0.6964   -2.5755 C.3       1 <0>        -0.1453
     22 C20         2.2066   -0.4222   -3.2079 C.2       1 <0>         0.5163
     23 O2          3.4153   -0.4442   -3.3045 O.2       1 <0>        -0.5297
     24 N2          1.3814   -1.3883   -3.6466 N.am      1 <0>        -0.6013
     25 C21        -0.0224   -1.0503   -3.3841 C.3       1 <0>         0.1074
     26 C22         1.8262   -2.6204   -4.3027 C.3       1 <0>         0.1521
     27 C23         1.0569   -2.8341   -5.6263 C.3       1 <0>        -0.1305
     28 C24         0.3022   -4.1843   -5.4299 C.3       1 <0>        -0.1040
     29 C25         1.4254   -5.2657   -5.4478 C.3       1 <0>        -0.1221
     30 C26         2.1947   -5.0519   -4.1242 C.3       1 <0>        -0.1221
     31 C27         1.4638   -3.8616   -3.4312 C.3       1 <0>        -0.1058
     32 C28        -0.0136   -4.1194   -3.8939 C.3       1 <0>        -0.1287
     33 H1          0.9698    2.1367   -0.1227 H         1 <0>         0.0639
     34 H2         -0.5830    2.0238   -0.9853 H         1 <0>         0.0754
     35 H3         -0.5601    2.2615    0.7785 H         1 <0>         0.0860
     36 H4          0.3581   -1.2393    1.4626 H         1 <0>         0.1011
     37 H5          0.5752    0.3958    2.1317 H         1 <0>         0.0901
     38 H6         -0.7100   -2.5702    0.8709 H         1 <0>         0.1549
     39 H7         -2.0951   -4.5533    0.6748 H         1 <0>         0.1199
     40 H8         -4.3771   -4.6109    1.5565 H         1 <0>         0.1203
     41 H9         -5.3555   -2.6878    2.6674 H         1 <0>         0.1268
     42 H10        -5.1346   -0.3572    3.4566 H         1 <0>         0.1326
     43 H11        -0.2201    2.0891    2.4445 H         1 <0>         0.1306
     44 H12        -1.1954    4.0082    3.5650 H         1 <0>         0.1227
     45 H13        -3.4771    3.9498    4.4473 H         1 <0>         0.1224
     46 H14        -4.8706    1.9749    4.2283 H         1 <0>         0.1283
     47 H15        -0.7759    0.8020   -2.5004 H         1 <0>         0.1233
     48 H16         1.3302    1.5426   -3.2581 H         1 <0>         0.1167
     49 H17         1.8632    1.0050   -1.6343 H         1 <0>         0.1062
     50 H18        -0.5529   -1.9189   -2.9939 H         1 <0>         0.1084
     51 H19        -0.5013   -0.6932   -4.2958 H         1 <0>         0.0787
     52 H20         2.9001   -2.5857   -4.4866 H         1 <0>         0.0978
     53 H21         0.3478   -2.0225   -5.7889 H         1 <0>         0.0708
     54 H22         1.7523   -2.9056   -6.4627 H         1 <0>         0.0736
     55 H23        -0.5485   -4.3550   -6.0898 H         1 <0>         0.1005
     56 H24         0.9906   -6.2647   -5.4775 H         1 <0>         0.0647
     57 H25         2.0867   -5.1125   -6.3006 H         1 <0>         0.0651
     58 H26         2.1382   -5.9459   -3.5032 H         1 <0>         0.0679
     59 H27         3.2342   -4.7937   -4.3263 H         1 <0>         0.0654
     60 H28         1.6333   -3.7572   -2.3595 H         1 <0>         0.1023
     61 H29        -0.6708   -3.2858   -3.6465 H         1 <0>         0.0766
     62 H30        -0.4011   -5.0655   -3.5159 H         1 <0>         0.0707
@<TRIPOS>BOND
     1    1    2 1
     2    1   33 1
     3    1   34 1
     4    1   35 1
     5    2    3 1
     6    2   18 am
     7    3    4 1
     8    3   36 1
     9    3   37 1
    10    4   13 ar
    11    4    5 ar
    12    5   10 ar
    13    5    6 ar
    14    6    7 ar
    15    6   38 1
    16    7    8 ar
    17    7   39 1
    18    8    9 ar
    19    8   40 1
    20    9   10 ar
    21    9   41 1
    22   10   11 ar
    23   11   12 ar
    24   11   42 1
    25   12   17 ar
    26   12   13 ar
    27   13   14 ar
    28   14   15 ar
    29   14   43 1
    30   15   16 ar
    31   15   44 1
    32   16   17 ar
    33   16   45 1
    34   17   46 1
    35   18   19 2
    36   18   20 1
    37   20   25 1
    38   20   21 1
    39   20   47 1
    40   21   22 1
    41   21   48 1
    42   21   49 1
    43   22   23 2
    44   22   24 am
    45   24   25 1
    46   24   26 1
    47   25   50 1
    48   25   51 1
    49   26   31 1
    50   26   27 1
    51   26   52 1
    52   27   28 1
    53   27   53 1
    54   27   54 1
    55   28   32 1
    56   28   29 1
    57   28   55 1
    58   29   30 1
    59   29   56 1
    60   29   57 1
    61   30   31 1
    62   30   58 1
    63   30   59 1
    64   31   32 1
    65   31   60 1
    66   32   61 1
    67   32   62 1
@<TRIPOS>MOLECULE
CHEMBL426702__6
   62    67     0     0     0
SMALL
USER_CHARGES

@<TRIPOS>ATOM
      1 C1         -0.0576    1.6794   -0.0384 C.3       1 <0>         0.0572
      2 N1         -0.0503    0.2205    0.0939 N.am      1 <0>        -0.6055
      3 C2         -0.0316   -0.3944    1.4235 C.3       1 <0>         0.1508
      4 C3         -1.4367   -0.4663    1.9635 C.ar      1 <0>        -0.0866
      5 C4         -2.1984   -1.6197    1.7853 C.ar      1 <0>        -0.0297
      6 C5         -1.6770   -2.7390    1.1012 C.ar      1 <0>        -0.1008
      7 C6         -2.4460   -3.8467    0.9456 C.ar      1 <0>        -0.1176
      8 C7         -3.7471   -3.9129    1.4452 C.ar      1 <0>        -0.1091
      9 C8         -4.3092   -2.8730    2.1123 C.ar      1 <0>        -0.1160
     10 C9         -3.5658   -1.6895    2.3107 C.ar      1 <0>        -0.0503
     11 C10        -4.1122   -0.6026    2.9908 C.ar      1 <0>        -0.0855
     12 C11        -3.3508    0.5510    3.1682 C.ar      1 <0>        -0.0541
     13 C12        -1.9808    0.6182    2.6493 C.ar      1 <0>        -0.0338
     14 C13        -1.2357    1.7997    2.8532 C.ar      1 <0>        -0.1225
     15 C14        -1.7960    2.8373    3.5255 C.ar      1 <0>        -0.1077
     16 C15        -3.0971    2.7707    4.0255 C.ar      1 <0>        -0.1201
     17 C16        -3.8727    1.6701    3.8524 C.ar      1 <0>        -0.0998
     18 C17        -0.0608   -0.5561   -1.0076 C.2       1 <0>         0.5246
     19 O1         -0.1427   -1.7613   -0.8991 O.2       1 <0>        -0.5193
     20 C18         0.0292    0.0731   -2.3740 C.3       1 <0>        -0.1261
     21 C19         1.4176    0.7162   -2.5967 C.3       1 <0>        -0.1452
     22 C20         2.2240   -0.3681   -3.2768 C.2       1 <0>         0.5165
     23 O2          3.4329   -0.3774   -3.3737 O.2       1 <0>        -0.5296
     24 N2          1.4057   -1.3200   -3.7577 N.am      1 <0>        -0.6018
     25 C21        -0.0005   -1.0036   -3.4814 C.3       1 <0>         0.1151
     26 C22         1.8593   -2.5191   -4.4666 C.3       1 <0>         0.1531
     27 C23         1.4090   -3.7924   -3.7146 C.3       1 <0>        -0.1341
     28 C24         0.4890   -4.5426   -4.7255 C.3       1 <0>        -0.1010
     29 C25         1.4617   -5.0598   -5.8290 C.3       1 <0>        -0.1231
     30 C26         1.9121   -3.7866   -6.5810 C.3       1 <0>        -0.1200
     31 C27         1.1690   -2.6200   -5.8611 C.3       1 <0>        -0.1111
     32 C28        -0.1746   -3.3301   -5.4689 C.3       1 <0>        -0.1306
     33 H1          0.9682    2.0453   -0.0838 H         1 <0>         0.0640
     34 H2         -0.5837    1.9589   -0.9512 H         1 <0>         0.0756
     35 H3         -0.5626    2.1197    0.8214 H         1 <0>         0.0861
     36 H4          0.3823   -1.4003    1.3529 H         1 <0>         0.1010
     37 H5          0.5846    0.2059    2.0928 H         1 <0>         0.0903
     38 H6         -0.6731   -2.7140    0.7038 H         1 <0>         0.1546
     39 H7         -2.0401   -4.6991    0.4211 H         1 <0>         0.1199
     40 H8         -4.3221   -4.8150    1.2969 H         1 <0>         0.1204
     41 H9         -5.3186   -2.9503    2.4884 H         1 <0>         0.1269
     42 H10        -5.1193   -0.6540    3.3774 H         1 <0>         0.1327
     43 H11        -0.2263    1.8775    2.4770 H         1 <0>         0.1306
     44 H12        -1.2197    3.7378    3.6779 H         1 <0>         0.1227
     45 H13        -3.5014    3.6211    4.5543 H         1 <0>         0.1225
     46 H14        -4.8769    1.6450    4.2490 H         1 <0>         0.1283
     47 H15        -0.7672    0.8031   -2.5183 H         1 <0>         0.1238
     48 H16         1.3338    1.5908   -3.2418 H         1 <0>         0.1170
     49 H17         1.8702    0.9867   -1.6427 H         1 <0>         0.1061
     50 H18        -0.5250   -1.8920   -3.1298 H         1 <0>         0.1012
     51 H19        -0.4817   -0.6104   -4.3769 H         1 <0>         0.0803
     52 H20         2.9434   -2.5056   -4.5793 H         1 <0>         0.0978
     53 H21         2.2717   -4.4070   -3.4575 H         1 <0>         0.0704
     54 H22         0.8501   -3.5261   -2.8175 H         1 <0>         0.0825
     55 H23        -0.1933   -5.2758   -4.2954 H         1 <0>         0.1003
     56 H24         2.3196   -5.5573   -5.3766 H         1 <0>         0.0655
     57 H25         0.9421   -5.7374   -6.5064 H         1 <0>         0.0646
     58 H26         2.9913   -3.6581   -6.4983 H         1 <0>         0.0662
     59 H27         1.6138   -3.8382   -7.6281 H         1 <0>         0.0683
     60 H28         1.0886   -1.6885   -6.4215 H         1 <0>         0.0997
     61 H29        -0.7400   -3.6475   -6.3451 H         1 <0>         0.0716
     62 H30        -0.7786   -2.7198   -4.7975 H         1 <0>         0.0733
@<TRIPOS>BOND
     1    1    2 1
     2    1   33 1
     3    1   34 1
     4    1   35 1
     5    2    3 1
     6    2   18 am
     7    3    4 1
     8    3   36 1
     9    3   37 1
    10    4   13 ar
    11    4    5 ar
    12    5   10 ar
    13    5    6 ar
    14    6    7 ar
    15    6   38 1
    16    7    8 ar
    17    7   39 1
    18    8    9 ar
    19    8   40 1
    20    9   10 ar
    21    9   41 1
    22   10   11 ar
    23   11   12 ar
    24   11   42 1
    25   12   17 ar
    26   12   13 ar
    27   13   14 ar
    28   14   15 ar
    29   14   43 1
    30   15   16 ar
    31   15   44 1
    32   16   17 ar
    33   16   45 1
    34   17   46 1
    35   18   19 2
    36   18   20 1
    37   20   25 1
    38   20   21 1
    39   20   47 1
    40   21   22 1
    41   21   48 1
    42   21   49 1
    43   22   23 2
    44   22   24 am
    45   24   25 1
    46   24   26 1
    47   25   50 1
    48   25   51 1
    49   26   31 1
    50   26   27 1
    51   26   52 1
    52   27   28 1
    53   27   53 1
    54   27   54 1
    55   28   32 1
    56   28   29 1
    57   28   55 1
    58   29   30 1
    59   29   56 1
    60   29   57 1
    61   30   31 1
    62   30   58 1
    63   30   59 1
    64   31   32 1
    65   31   60 1
    66   32   61 1
    67   32   62 1
@<TRIPOS>MOLECULE
CHEMBL426702__7
   62    67     0     0     0
SMALL
USER_CHARGES

@<TRIPOS>ATOM
      1 C1         -0.0996    1.5688    0.0336 C.3       1 <0>         0.0571
      2 N1          0.1300    0.1305    0.1913 N.am      1 <0>        -0.6057
      3 C2          0.2190   -0.4545    1.5314 C.3       1 <0>         0.1506
      4 C3         -1.1679   -0.7314    2.0518 C.ar      1 <0>        -0.0866
      5 C4         -1.7416   -1.9904    1.8840 C.ar      1 <0>        -0.0298
      6 C5         -1.0436   -3.0279    1.2290 C.ar      1 <0>        -0.1010
      7 C6         -1.6317   -4.2426    1.0830 C.ar      1 <0>        -0.1177
      8 C7         -2.9161   -4.4986    1.5644 C.ar      1 <0>        -0.1092
      9 C8         -3.6419   -3.5460    2.2033 C.ar      1 <0>        -0.1159
     10 C9         -3.0913   -2.2597    2.3904 C.ar      1 <0>        -0.0502
     11 C10        -3.8089   -1.2581    3.0417 C.ar      1 <0>        -0.0854
     12 C11        -3.2356    0.0011    3.2086 C.ar      1 <0>        -0.0541
     13 C12        -1.8829    0.2683    2.7089 C.ar      1 <0>        -0.0338
     14 C13        -1.3305    1.5530    2.9015 C.ar      1 <0>        -0.1226
     15 C14        -2.0542    2.5036    3.5457 C.ar      1 <0>        -0.1076
     16 C15        -3.3384    2.2472    4.0275 C.ar      1 <0>        -0.1201
     17 C16        -3.9339    1.0383    3.8637 C.ar      1 <0>        -0.0998
     18 C17         0.2594   -0.6545   -0.8967 C.2       1 <0>         0.5244
     19 O1          0.3629   -1.8560   -0.7686 O.2       1 <0>        -0.5194
     20 C18         0.2754   -0.0391   -2.2722 C.3       1 <0>        -0.1247
     21 C19         1.5515    0.8079   -2.4847 C.3       1 <0>        -0.1460
     22 C20         2.5278   -0.1484   -3.1334 C.2       1 <0>         0.5169
     23 O2          3.7251    0.0282   -3.2116 O.2       1 <0>        -0.5252
     24 N2          1.8752   -1.2224   -3.6103 N.am      1 <0>        -0.6003
     25 C21         0.4323   -1.1236   -3.3612 C.3       1 <0>         0.1138
     26 C22         2.5213   -2.3472   -4.2912 C.3       1 <0>         0.1586
     27 C23         1.4704   -3.4030   -4.7039 C.3       1 <0>        -0.1302
     28 C24         1.5693   -3.4709   -6.2586 C.3       1 <0>        -0.1027
     29 C25         0.9774   -2.1136   -6.7471 C.3       1 <0>        -0.1200
     30 C26         2.0284   -1.0578   -6.3344 C.3       1 <0>        -0.1197
     31 C27         3.1563   -1.8767   -5.6354 C.3       1 <0>        -0.1104
     32 C28         3.1032   -3.2090   -6.4634 C.3       1 <0>        -0.1233
     33 H1          0.8582    2.0879   -0.0020 H         1 <0>         0.0640
     34 H2         -0.6458    1.7502   -0.8920 H         1 <0>         0.0755
     35 H3         -0.6820    1.9384    0.8776 H         1 <0>         0.0863
     36 H4          0.7822   -1.3866    1.4843 H         1 <0>         0.1010
     37 H5          0.7252    0.2425    2.1993 H         1 <0>         0.0904
     38 H6         -0.0484   -2.8563    0.8462 H         1 <0>         0.1542
     39 H7         -1.0915   -5.0314    0.5807 H         1 <0>         0.1200
     40 H8         -3.3441   -5.4803    1.4246 H         1 <0>         0.1206
     41 H9         -4.6341   -3.7705    2.5659 H         1 <0>         0.1270
     42 H10        -4.8030   -1.4564    3.4142 H         1 <0>         0.1328
     43 H11        -0.3384    1.7780    2.5388 H         1 <0>         0.1307
     44 H12        -1.6247    3.4840    3.6896 H         1 <0>         0.1228
     45 H13        -3.8770    3.0344    4.5341 H         1 <0>         0.1225
     46 H14        -4.9294    0.8665    4.2458 H         1 <0>         0.1284
     47 H15        -0.6216    0.5566   -2.4413 H         1 <0>         0.1236
     48 H16         1.3451    1.6494   -3.1461 H         1 <0>         0.1161
     49 H17         1.9397    1.1592   -1.5287 H         1 <0>         0.1059
     50 H18         0.0453   -2.0773   -3.0023 H         1 <0>         0.1006
     51 H19        -0.0878   -0.8229   -4.2706 H         1 <0>         0.0797
     52 H20         3.2798   -2.7944   -3.6487 H         1 <0>         0.0799
     53 H21         1.7117   -4.3711   -4.2651 H         1 <0>         0.0750
     54 H22         0.4729   -3.0852   -4.4002 H         1 <0>         0.0796
     55 H23         1.1684   -4.3721   -6.7226 H         1 <0>         0.1020
     56 H24         0.8517   -2.1216   -7.8298 H         1 <0>         0.0638
     57 H25         0.0255   -1.9149   -6.2546 H         1 <0>         0.0620
     58 H26         2.4194   -0.5468   -7.2142 H         1 <0>         0.0618
     59 H27         1.5932   -0.3401   -5.6390 H         1 <0>         0.0651
     60 H28         4.1251   -1.3833   -5.5578 H         1 <0>         0.1032
     61 H29         3.7150   -3.9927   -6.0165 H         1 <0>         0.0717
     62 H30         3.3542   -3.0489   -7.5119 H         1 <0>         0.0742
@<TRIPOS>BOND
     1    1    2 1
     2    1   33 1
     3    1   34 1
     4    1   35 1
     5    2    3 1
     6    2   18 am
     7    3    4 1
     8    3   36 1
     9    3   37 1
    10    4   13 ar
    11    4    5 ar
    12    5   10 ar
    13    5    6 ar
    14    6    7 ar
    15    6   38 1
    16    7    8 ar
    17    7   39 1
    18    8    9 ar
    19    8   40 1
    20    9   10 ar
    21    9   41 1
    22   10   11 ar
    23   11   12 ar
    24   11   42 1
    25   12   17 ar
    26   12   13 ar
    27   13   14 ar
    28   14   15 ar
    29   14   43 1
    30   15   16 ar
    31   15   44 1
    32   16   17 ar
    33   16   45 1
    34   17   46 1
    35   18   19 2
    36   18   20 1
    37   20   25 1
    38   20   21 1
    39   20   47 1
    40   21   22 1
    41   21   48 1
    42   21   49 1
    43   22   23 2
    44   22   24 am
    45   24   25 1
    46   24   26 1
    47   25   50 1
    48   25   51 1
    49   26   31 1
    50   26   27 1
    51   26   52 1
    52   27   28 1
    53   27   53 1
    54   27   54 1
    55   28   32 1
    56   28   29 1
    57   28   55 1
    58   29   30 1
    59   29   56 1
    60   29   57 1
    61   30   31 1
    62   30   58 1
    63   30   59 1
    64   31   32 1
    65   31   60 1
    66   32   61 1
    67   32   62 1
@<TRIPOS>MOLECULE
CHEMBL216807
   43    45     0     0     0
SMALL
USER_CHARGES

@<TRIPOS>ATOM
      1 C1          2.1320    1.4020    0.7463 C.ar      1 <0>        -0.1106
      2 C2          1.1765    2.0875    0.0078 C.ar      1 <0>         0.1726
      3 C3          0.2365    1.3822   -0.7317 C.ar      1 <0>        -0.1332
      4 C4          0.2539   -0.0001   -0.7311 C.ar      1 <0>        -0.0035
      5 C5          1.2068   -0.6809    0.0061 C.ar      1 <0>        -0.1167
      6 C6          2.1450    0.0197    0.7436 C.ar      1 <0>        -0.0035
      7 Cl1         3.3395   -0.8382    1.6661 Cl        1 <0>        -0.0464
      8 Cl2        -0.9210   -0.8826   -1.6554 Cl        1 <0>        -0.0472
      9 N1          1.1608    3.4866    0.0092 N.am      1 <0>        -0.6681
     10 C7          2.3166    4.1735    0.1036 C.2       1 <0>         0.5290
     11 O1          3.3758    3.5828    0.0909 O.2       1 <0>        -0.5027
     12 C8          2.2928    5.6754    0.2250 C.3       1 <0>        -0.1228
     13 C9          1.7791    6.3279   -1.0794 C.3       1 <0>        -0.1484
     14 C10         2.6135    7.5819   -1.2205 C.2       1 <0>         0.5211
     15 O2          2.3467    8.5156   -1.9471 O.2       1 <0>        -0.5183
     16 N2          3.6932    7.5110   -0.4230 N.am      1 <0>        -0.6154
     17 C11         3.7256    6.2452    0.3191 C.3       1 <0>         0.1161
     18 C12         4.7073    8.5621   -0.3092 C.3       1 <0>         0.1616
     19 C13         4.0495    9.8546    0.1784 C.3       1 <0>        -0.1335
     20 C14         5.1086   10.9524    0.2973 C.3       1 <0>        -0.1151
     21 C15         5.7510   11.1916   -1.0706 C.3       1 <0>        -0.1233
     22 C16         6.4087    9.8991   -1.5581 C.3       1 <0>        -0.1151
     23 C17         5.3497    8.8013   -1.6770 C.3       1 <0>        -0.1347
     24 H1          2.8670    1.9483    1.3188 H         1 <0>         0.1530
     25 H2         -0.5079    1.9130   -1.3067 H         1 <0>         0.1454
     26 H3          1.2183   -1.7608    0.0058 H         1 <0>         0.1478
     27 H4          0.3181    3.9623   -0.0577 H         1 <0>         0.4186
     28 H5          1.6925    5.9862    1.0800 H         1 <0>         0.1262
     29 H6          1.9422    5.6637   -1.9281 H         1 <0>         0.1097
     30 H7          0.7227    6.5807   -0.9891 H         1 <0>         0.1138
     31 H8          3.9923    6.4252    1.3605 H         1 <0>         0.0883
     32 H9          4.4360    5.5572   -0.1395 H         1 <0>         0.0938
     33 H10         5.4727    8.2530    0.4027 H         1 <0>         0.0893
     34 H11         3.2841   10.1637   -0.5334 H         1 <0>         0.0792
     35 H12         3.5919    9.6842    1.1529 H         1 <0>         0.0628
     36 H13         4.6400   11.8732    0.6446 H         1 <0>         0.0665
     37 H14         5.8740   10.6433    1.0091 H         1 <0>         0.0628
     38 H15         4.9856   11.5007   -1.7824 H         1 <0>         0.0646
     39 H16         6.5055   11.9737   -0.9859 H         1 <0>         0.0641
     40 H17         6.8664   10.0695   -2.5326 H         1 <0>         0.0666
     41 H18         7.1741    9.5900   -0.8463 H         1 <0>         0.0629
     42 H19         5.8182    7.8805   -2.0244 H         1 <0>         0.0634
     43 H20         4.5842    9.1104   -2.3888 H         1 <0>         0.0793
@<TRIPOS>BOND
     1    1    6 ar
     2    1    2 ar
     3    1   24 1
     4    2    3 ar
     5    2    9 1
     6    3    4 ar
     7    3   25 1
     8    4    5 ar
     9    4    8 1
    10    5    6 ar
    11    5   26 1
    12    6    7 1
    13    9   10 am
    14    9   27 1
    15   10   11 2
    16   10   12 1
    17   12   17 1
    18   12   13 1
    19   12   28 1
    20   13   14 1
    21   13   29 1
    22   13   30 1
    23   14   15 2
    24   14   16 am
    25   16   17 1
    26   16   18 1
    27   17   31 1
    28   17   32 1
    29   18   23 1
    30   18   19 1
    31   18   33 1
    32   19   20 1
    33   19   34 1
    34   19   35 1
    35   20   21 1
    36   20   36 1
    37   20   37 1
    38   21   22 1
    39   21   38 1
    40   21   39 1
    41   22   23 1
    42   22   40 1
    43   22   41 1
    44   23   42 1
    45   23   43 1
@<TRIPOS>MOLECULE
CHEMBL216807__1
   43    45     0     0     0
SMALL
USER_CHARGES

@<TRIPOS>ATOM
      1 C1          2.1319    1.4020    0.7464 C.ar      1 <0>        -0.1101
      2 C2          1.1765    2.0875    0.0079 C.ar      1 <0>         0.1735
      3 C3          0.2365    1.3821   -0.7316 C.ar      1 <0>        -0.1335
      4 C4          0.2539   -0.0001   -0.7309 C.ar      1 <0>        -0.0035
      5 C5          1.2068   -0.6809    0.0063 C.ar      1 <0>        -0.1170
      6 C6          2.1450    0.0197    0.7437 C.ar      1 <0>        -0.0031
      7 Cl1         3.3395   -0.8381    1.6663 Cl        1 <0>        -0.0464
      8 Cl2        -0.9210   -0.8827   -1.6552 Cl        1 <0>        -0.0477
      9 N1          1.1608    3.4866    0.0092 N.am      1 <0>        -0.6694
     10 C7          2.3166    4.1735    0.1036 C.2       1 <0>         0.5224
     11 O1          3.3758    3.5828    0.0909 O.2       1 <0>        -0.4995
     12 C8          2.2928    5.6754    0.2250 C.3       1 <0>        -0.1243
     13 C9          1.6904    6.1116    1.5806 C.3       1 <0>        -0.1480
     14 C10         2.8916    6.2702    2.4865 C.2       1 <0>         0.5162
     15 O2          2.8458    6.3284    3.6971 O.2       1 <0>        -0.5200
     16 N2          4.0170    6.3369    1.7545 N.am      1 <0>        -0.6109
     17 C11         3.7256    6.2452    0.3191 C.3       1 <0>         0.1154
     18 C12         5.3618    6.4824    2.3174 C.3       1 <0>         0.1640
     19 C13         5.6618    5.2954    3.2349 C.3       1 <0>        -0.1335
     20 C14         7.0662    5.4474    3.8227 C.3       1 <0>        -0.1147
     21 C15         7.1444    6.7464    4.6273 C.3       1 <0>        -0.1230
     22 C16         6.8444    7.9335    3.7098 C.3       1 <0>        -0.1147
     23 C17         5.4400    7.7815    3.1220 C.3       1 <0>        -0.1335
     24 H1          2.8669    1.9483    1.3189 H         1 <0>         0.1513
     25 H2         -0.5079    1.9130   -1.3066 H         1 <0>         0.1453
     26 H3          1.2183   -1.7608    0.0061 H         1 <0>         0.1477
     27 H4          0.3181    3.9623   -0.0578 H         1 <0>         0.4179
     28 H5          1.7488    6.1233   -0.6065 H         1 <0>         0.1323
     29 H6          1.1633    7.0600    1.4764 H         1 <0>         0.1213
     30 H7          1.0211    5.3424    1.9658 H         1 <0>         0.1055
     31 H8          4.4319    5.5720   -0.1669 H         1 <0>         0.0984
     32 H9          3.7694    7.2334   -0.1386 H         1 <0>         0.0855
     33 H10         6.0927    6.5109    1.5093 H         1 <0>         0.0882
     34 H11         4.9308    5.2669    4.0430 H         1 <0>         0.0770
     35 H12         5.6061    4.3700    2.6617 H         1 <0>         0.0651
     36 H13         7.2799    4.6018    4.4764 H         1 <0>         0.0658
     37 H14         7.7972    5.4759    3.0147 H         1 <0>         0.0625
     38 H15         6.4135    6.7179    5.4354 H         1 <0>         0.0641
     39 H16         8.1449    6.8547    5.0461 H         1 <0>         0.0636
     40 H17         6.9001    8.8589    4.2830 H         1 <0>         0.0660
     41 H18         7.5754    7.9620    2.9017 H         1 <0>         0.0625
     42 H19         5.2262    8.6271    2.4683 H         1 <0>         0.0624
     43 H20         4.7090    7.7530    3.9300 H         1 <0>         0.0789
@<TRIPOS>BOND
     1    1    6 ar
     2    1    2 ar
     3    1   24 1
     4    2    3 ar
     5    2    9 1
     6    3    4 ar
     7    3   25 1
     8    4    5 ar
     9    4    8 1
    10    5    6 ar
    11    5   26 1
    12    6    7 1
    13    9   10 am
    14    9   27 1
    15   10   11 2
    16   10   12 1
    17   12   17 1
    18   12   13 1
    19   12   28 1
    20   13   14 1
    21   13   29 1
    22   13   30 1
    23   14   15 2
    24   14   16 am
    25   16   17 1
    26   16   18 1
    27   17   31 1
    28   17   32 1
    29   18   23 1
    30   18   19 1
    31   18   33 1
    32   19   20 1
    33   19   34 1
    34   19   35 1
    35   20   21 1
    36   20   36 1
    37   20   37 1
    38   21   22 1
    39   21   38 1
    40   21   39 1
    41   22   23 1
    42   22   40 1
    43   22   41 1
    44   23   42 1
    45   23   43 1
@<TRIPOS>MOLECULE
CHEMBL217057
   67    71     0     0     0
SMALL
USER_CHARGES

@<TRIPOS>ATOM
      1 C1          1.2998    2.5198    1.8437 C.ar      1 <0>        -0.1167
      2 C2          2.6590    2.7764    1.8526 C.ar      1 <0>        -0.1178
      3 C3          3.5462    1.8271    1.3872 C.ar      1 <0>        -0.1055
      4 C4          3.0703    0.6080    0.9082 C.ar      1 <0>        -0.0391
      5 C5          1.6999    0.3547    0.9021 C.ar      1 <0>        -0.0987
      6 C6          0.8219    1.3115    1.3694 C.ar      1 <0>        -0.1173
      7 C7          4.0189   -0.4161    0.4063 C.ar      1 <0>        -0.0518
      8 C8          4.9994   -0.0650   -0.5185 C.ar      1 <0>        -0.1137
      9 C9          5.8870   -1.0216   -0.9885 C.ar      1 <0>         0.1373
     10 C10         5.8036   -2.3317   -0.5404 C.ar      1 <0>        -0.0897
     11 C11         4.8271   -2.6929    0.3846 C.ar      1 <0>        -0.0510
     12 C12         3.9341   -1.7325    0.8647 C.ar      1 <0>         0.1208
     13 O1          2.9828   -2.0787    1.7705 O.3       1 <0>        -0.4817
     14 C13         4.7387   -4.0943    0.8627 C.ar      1 <0>        -0.0492
     15 C14         4.6705   -4.3645    2.2282 C.ar      1 <0>        -0.0849
     16 C15         4.5879   -5.6703    2.6673 C.ar      1 <0>        -0.1225
     17 C16         4.5728   -6.7099    1.7549 C.ar      1 <0>        -0.1143
     18 C17         4.6402   -6.4476    0.3984 C.ar      1 <0>        -0.1226
     19 C18         4.7177   -5.1454   -0.0522 C.ar      1 <0>        -0.1041
     20 N1          6.8711   -0.6635   -1.9196 N.am      1 <0>        -0.6688
     21 C19         8.0856   -1.2459   -1.8742 C.2       1 <0>         0.5275
     22 O2          8.3008   -2.1388   -1.0820 O.2       1 <0>        -0.5072
     23 C20         9.1763   -0.7878   -2.8077 C.3       1 <0>        -0.1227
     24 C21         8.8376   -1.1470   -4.2731 C.3       1 <0>        -0.1477
     25 C22        10.1706   -1.5263   -4.8797 C.2       1 <0>         0.5207
     26 O3         10.3958   -1.6034   -6.0690 O.2       1 <0>        -0.5197
     27 N2         11.0692   -1.7649   -3.9090 N.am      1 <0>        -0.6181
     28 C23        10.4747   -1.5928   -2.5782 C.3       1 <0>         0.1163
     29 C24        12.4629   -2.1476   -4.1485 C.3       1 <0>         0.1685
     30 C25        13.1746   -1.0006   -4.8947 C.3       1 <0>        -0.1264
     31 C26        14.6585   -1.1475   -4.6929 C.3       1 <0>        -0.1167
     32 C27        15.3345   -1.9276   -5.8366 C.3       1 <0>        -0.1176
     33 C28        14.5141   -3.1493   -6.2929 C.3       1 <0>        -0.1232
     34 C29        13.9214   -3.9092   -5.1373 C.3       1 <0>        -0.1091
     35 C30        12.4869   -3.3955   -4.8970 C.3       1 <0>        -0.1421
     36 H1          0.6094    3.2639    2.2126 H         1 <0>         0.1231
     37 H2          3.0267    3.7215    2.2240 H         1 <0>         0.1244
     38 H3          4.6071    2.0288    1.3940 H         1 <0>         0.1226
     39 H4          1.3257   -0.5882    0.5317 H         1 <0>         0.1179
     40 H5         -0.2403    1.1164    1.3647 H         1 <0>         0.1245
     41 H6          5.0685    0.9537   -0.8704 H         1 <0>         0.1337
     42 H7          6.4968   -3.0729   -0.9097 H         1 <0>         0.1469
     43 H8          2.1509   -2.3723    1.3745 H         1 <0>         0.3864
     44 H9          4.6826   -3.5536    2.9414 H         1 <0>         0.1266
     45 H10         4.5354   -5.8809    3.7253 H         1 <0>         0.1239
     46 H11         4.5084   -7.7302    2.1030 H         1 <0>         0.1223
     47 H12         4.6280   -7.2631   -0.3095 H         1 <0>         0.1235
     48 H13         4.7661   -4.9415   -1.1117 H         1 <0>         0.1210
     49 H14         6.6781    0.0036   -2.5968 H         1 <0>         0.4146
     50 H15         9.3561    0.2817   -2.6993 H         1 <0>         0.1236
     51 H16         8.1481   -1.9905   -4.3095 H         1 <0>         0.1089
     52 H17         8.4150   -0.2850   -4.7893 H         1 <0>         0.1127
     53 H18        11.1534   -1.0374   -1.9309 H         1 <0>         0.0872
     54 H19        10.2441   -2.5637   -2.1397 H         1 <0>         0.0931
     55 H20        12.9560   -2.3020   -3.1888 H         1 <0>         0.0848
     56 H21        12.9424   -1.0560   -5.9583 H         1 <0>         0.0792
     57 H22        12.8437   -0.0424   -4.4943 H         1 <0>         0.0647
     58 H23        15.1058   -0.1555   -4.6301 H         1 <0>         0.0627
     59 H24        14.8365   -1.6725   -3.7545 H         1 <0>         0.0612
     60 H25        15.4706   -1.2584   -6.6862 H         1 <0>         0.0594
     61 H26        16.3136   -2.2677   -5.4994 H         1 <0>         0.0597
     62 H27        13.7074   -2.8097   -6.9425 H         1 <0>         0.0642
     63 H28        15.1625   -3.8179   -6.8592 H         1 <0>         0.0596
     64 H29        13.8946   -4.9729   -5.3737 H         1 <0>         0.0669
     65 H30        14.5236   -3.7449   -4.2437 H         1 <0>         0.0663
     66 H31        11.9299   -4.1506   -4.3423 H         1 <0>         0.0617
     67 H32        12.0021   -3.2387   -5.8605 H         1 <0>         0.0815
@<TRIPOS>BOND
     1    1    6 ar
     2    1    2 ar
     3    1   36 1
     4    2    3 ar
     5    2   37 1
     6    3    4 ar
     7    3   38 1
     8    4    5 ar
     9    4    7 1
    10    5    6 ar
    11    5   39 1
    12    6   40 1
    13    7   12 ar
    14    7    8 ar
    15    8    9 ar
    16    8   41 1
    17    9   10 ar
    18    9   20 1
    19   10   11 ar
    20   10   42 1
    21   11   12 ar
    22   11   14 1
    23   12   13 1
    24   13   43 1
    25   14   19 ar
    26   14   15 ar
    27   15   16 ar
    28   15   44 1
    29   16   17 ar
    30   16   45 1
    31   17   18 ar
    32   17   46 1
    33   18   19 ar
    34   18   47 1
    35   19   48 1
    36   20   21 am
    37   20   49 1
    38   21   22 2
    39   21   23 1
    40   23   28 1
    41   23   24 1
    42   23   50 1
    43   24   25 1
    44   24   51 1
    45   24   52 1
    46   25   26 2
    47   25   27 am
    48   27   28 1
    49   27   29 1
    50   28   53 1
    51   28   54 1
    52   29   35 1
    53   29   30 1
    54   29   55 1
    55   30   31 1
    56   30   56 1
    57   30   57 1
    58   31   32 1
    59   31   58 1
    60   31   59 1
    61   32   33 1
    62   32   60 1
    63   32   61 1
    64   33   34 1
    65   33   62 1
    66   33   63 1
    67   34   35 1
    68   34   64 1
    69   34   65 1
    70   35   66 1
    71   35   67 1
@<TRIPOS>MOLECULE
CHEMBL217057__1
   67    71     0     0     0
SMALL
USER_CHARGES

@<TRIPOS>ATOM
      1 C1          1.3000    2.5202    1.8437 C.ar      1 <0>        -0.1167
      2 C2          2.6592    2.7768    1.8525 C.ar      1 <0>        -0.1175
      3 C3          3.5463    1.8275    1.3872 C.ar      1 <0>        -0.1053
      4 C4          3.0705    0.6083    0.9083 C.ar      1 <0>        -0.0391
      5 C5          1.7001    0.3550    0.9022 C.ar      1 <0>        -0.0988
      6 C6          0.8220    1.3118    1.3695 C.ar      1 <0>        -0.1176
      7 C7          4.0190   -0.4158    0.4064 C.ar      1 <0>        -0.0516
      8 C8          4.9995   -0.0649   -0.5184 C.ar      1 <0>        -0.1143
      9 C9          5.8870   -1.0216   -0.9884 C.ar      1 <0>         0.1383
     10 C10         5.8036   -2.3315   -0.5402 C.ar      1 <0>        -0.0894
     11 C11         4.8271   -2.6927    0.3849 C.ar      1 <0>        -0.0517
     12 C12         3.9342   -1.7322    0.8649 C.ar      1 <0>         0.1202
     13 O1          2.9830   -2.0784    1.7708 O.3       1 <0>        -0.4816
     14 C13         4.7388   -4.0941    0.8631 C.ar      1 <0>        -0.0483
     15 C14         4.6707   -4.3641    2.2286 C.ar      1 <0>        -0.0850
     16 C15         4.5881   -5.6699    2.6679 C.ar      1 <0>        -0.1224
     17 C16         4.5729   -6.7096    1.7556 C.ar      1 <0>        -0.1146
     18 C17         4.6403   -6.4474    0.3991 C.ar      1 <0>        -0.1227
     19 C18         4.7177   -5.1452   -0.0517 C.ar      1 <0>        -0.1041
     20 N1          6.8711   -0.6635   -1.9196 N.am      1 <0>        -0.6704
     21 C19         8.0856   -1.2459   -1.8742 C.2       1 <0>         0.5213
     22 O2          8.3008   -2.1388   -1.0820 O.2       1 <0>        -0.5037
     23 C20         9.1763   -0.7878   -2.8077 C.3       1 <0>        -0.1248
     24 C21         9.6315    0.6494   -2.4640 C.3       1 <0>        -0.1476
     25 C22        10.8057    0.4534   -1.5305 C.2       1 <0>         0.5167
     26 O3         11.2742    1.3123   -0.8138 O.2       1 <0>        -0.5217
     27 N2         11.2541   -0.8112   -1.6108 N.am      1 <0>        -0.6132
     28 C23        10.4747   -1.5928   -2.5782 C.3       1 <0>         0.1157
     29 C24        12.3764   -1.3414   -0.8327 C.3       1 <0>         0.1707
     30 C25        12.0181   -1.2800    0.6662 C.3       1 <0>        -0.1261
     31 C26        12.8943   -2.2534    1.4072 C.3       1 <0>        -0.1156
     32 C27        14.1626   -1.5896    1.9766 C.3       1 <0>        -0.1174
     33 C28        14.8093   -0.5952    0.9933 C.3       1 <0>        -0.1228
     34 C29        14.8228   -1.1100   -0.4206 C.3       1 <0>        -0.1088
     35 C30        13.5728   -0.5752   -1.1490 C.3       1 <0>        -0.1405
     36 H1          0.6096    3.2643    2.2126 H         1 <0>         0.1231
     37 H2          3.0269    3.7220    2.2238 H         1 <0>         0.1246
     38 H3          4.6073    2.0291    1.3938 H         1 <0>         0.1226
     39 H4          1.3258   -0.5880    0.5319 H         1 <0>         0.1178
     40 H5         -0.2402    1.1168    1.3649 H         1 <0>         0.1245
     41 H6          5.0685    0.9538   -0.8705 H         1 <0>         0.1333
     42 H7          6.4968   -3.0728   -0.9095 H         1 <0>         0.1467
     43 H8          2.1510   -2.3720    1.3749 H         1 <0>         0.3861
     44 H9          4.6828   -3.5532    2.9418 H         1 <0>         0.1263
     45 H10         4.5357   -5.8804    3.7259 H         1 <0>         0.1238
     46 H11         4.5086   -7.7299    2.1038 H         1 <0>         0.1222
     47 H12         4.6280   -7.2629   -0.3088 H         1 <0>         0.1235
     48 H13         4.7661   -4.9414   -1.1112 H         1 <0>         0.1210
     49 H14         6.6781    0.0036   -2.5969 H         1 <0>         0.4138
     50 H15         8.8528   -0.8573   -3.8463 H         1 <0>         0.1304
     51 H16         9.9445    1.1763   -3.3654 H         1 <0>         0.1195
     52 H17         8.8314    1.1930   -1.9616 H         1 <0>         0.1047
     53 H18        10.2417   -2.5757   -2.1687 H         1 <0>         0.0978
     54 H19        11.0261   -1.6939   -3.5130 H         1 <0>         0.0837
     55 H20        12.5394   -2.3820   -1.1129 H         1 <0>         0.0834
     56 H21        12.1907   -0.2719    1.0430 H         1 <0>         0.0763
     57 H22        10.9714   -1.5513    0.8039 H         1 <0>         0.0674
     58 H23        12.3238   -2.6866    2.2288 H         1 <0>         0.0621
     59 H24        13.1894   -3.0515    0.7260 H         1 <0>         0.0605
     60 H25        13.9009   -1.0588    2.8920 H         1 <0>         0.0588
     61 H26        14.8877   -2.3666    2.2185 H         1 <0>         0.0593
     62 H27        14.2529    0.3416    1.0222 H         1 <0>         0.0638
     63 H28        15.8349   -0.4039    1.3087 H         1 <0>         0.0592
     64 H29        15.7209   -0.7595   -0.9293 H         1 <0>         0.0664
     65 H30        14.8043   -2.1998   -0.4137 H         1 <0>         0.0661
     66 H31        13.7454   -0.6182   -2.2244 H         1 <0>         0.0607
     67 H32        13.4133    0.4636   -0.8601 H         1 <0>         0.0809
@<TRIPOS>BOND
     1    1    6 ar
     2    1    2 ar
     3    1   36 1
     4    2    3 ar
     5    2   37 1
     6    3    4 ar
     7    3   38 1
     8    4    5 ar
     9    4    7 1
    10    5    6 ar
    11    5   39 1
    12    6   40 1
    13    7   12 ar
    14    7    8 ar
    15    8    9 ar
    16    8   41 1
    17    9   10 ar
    18    9   20 1
    19   10   11 ar
    20   10   42 1
    21   11   12 ar
    22   11   14 1
    23   12   13 1
    24   13   43 1
    25   14   19 ar
    26   14   15 ar
    27   15   16 ar
    28   15   44 1
    29   16   17 ar
    30   16   45 1
    31   17   18 ar
    32   17   46 1
    33   18   19 ar
    34   18   47 1
    35   19   48 1
    36   20   21 am
    37   20   49 1
    38   21   22 2
    39   21   23 1
    40   23   28 1
    41   23   24 1
    42   23   50 1
    43   24   25 1
    44   24   51 1
    45   24   52 1
    46   25   26 2
    47   25   27 am
    48   27   28 1
    49   27   29 1
    50   28   53 1
    51   28   54 1
    52   29   35 1
    53   29   30 1
    54   29   55 1
    55   30   31 1
    56   30   56 1
    57   30   57 1
    58   31   32 1
    59   31   58 1
    60   31   59 1
    61   32   33 1
    62   32   60 1
    63   32   61 1
    64   33   34 1
    65   33   62 1
    66   33   63 1
    67   34   35 1
    68   34   64 1
    69   34   65 1
    70   35   66 1
    71   35   67 1
@<TRIPOS>MOLECULE
CHEMBL414086
   67    71     0     0     0
SMALL
USER_CHARGES

@<TRIPOS>ATOM
      1 C1          0.6347    1.6185    0.3001 C.3       1 <0>         0.0547
      2 N1          0.4217    0.1805    0.1186 N.am      1 <0>        -0.6047
      3 C2          0.5802   -0.7324    1.2533 C.3       1 <0>         0.1511
      4 C3         -0.6961   -0.7651    2.0540 C.ar      1 <0>        -0.0888
      5 C4         -0.9312    0.1931    3.0383 C.ar      1 <0>        -0.0333
      6 C5          0.0117    1.2088    3.3067 C.ar      1 <0>        -0.1229
      7 C6         -0.2492    2.1267    4.2722 C.ar      1 <0>        -0.1074
      8 C7         -1.4307    2.0960    5.0138 C.ar      1 <0>        -0.1205
      9 C8         -2.3789    1.1471    4.8067 C.ar      1 <0>        -0.0992
     10 C9         -2.1732    0.1613    3.8175 C.ar      1 <0>        -0.0546
     11 C10        -3.1256   -0.8278    3.5789 C.ar      1 <0>        -0.0844
     12 C11        -2.8901   -1.7865    2.5952 C.ar      1 <0>        -0.0507
     13 C12        -1.6515   -1.7502    1.8109 C.ar      1 <0>        -0.0293
     14 C13        -1.4489   -2.7327    0.8177 C.ar      1 <0>        -0.1009
     15 C14        -2.4000   -3.6780    0.6069 C.ar      1 <0>        -0.1173
     16 C15        -3.5817   -3.7081    1.3483 C.ar      1 <0>        -0.1096
     17 C16        -3.8333   -2.8020    2.3272 C.ar      1 <0>        -0.1154
     18 C17         0.0798   -0.3026   -1.0923 C.2       1 <0>         0.5292
     19 O1         -0.1960   -1.4765   -1.2210 O.2       1 <0>        -0.5216
     20 C18         0.0404    0.6161   -2.2863 C.3       1 <0>        -0.1228
     21 C19        -1.2925    1.3982   -2.3389 C.3       1 <0>        -0.1435
     22 C20        -1.6185    1.4769   -3.8141 C.2       1 <0>         0.5212
     23 O2         -2.4234    2.2379   -4.3080 O.2       1 <0>        -0.5214
     24 N2         -0.8858    0.5811   -4.4978 N.am      1 <0>        -0.6146
     25 C21        -0.0155   -0.1904   -3.6027 C.3       1 <0>         0.1154
     26 C22        -0.9481    0.3983   -5.9501 C.3       1 <0>         0.1415
     27 C23        -0.5628    1.7055   -6.6457 C.3       1 <0>        -0.1287
     28 C24        -0.2407    1.4255   -8.1148 C.3       1 <0>        -0.1258
     29 C25         0.6273    0.1699   -8.2170 C.3       1 <0>        -0.1296
     30 C26        -0.1640   -0.9428   -8.9074 C.3       1 <0>        -0.1217
     31 C27        -1.1800   -1.5296   -7.9254 C.3       1 <0>        -0.1301
     32 C28        -2.3581   -0.5655   -7.7734 C.3       1 <0>        -0.1254
     33 C29        -2.3707    0.0057   -6.3542 C.3       1 <0>        -0.1297
     34 H1          1.6987    1.8411    0.2205 H         1 <0>         0.0645
     35 H2          0.0904    2.1664   -0.4691 H         1 <0>         0.0776
     36 H3          0.2734    1.9180    1.2839 H         1 <0>         0.0854
     37 H4          0.8041   -1.7338    0.8855 H         1 <0>         0.1019
     38 H5          1.3975   -0.3867    1.8863 H         1 <0>         0.0913
     39 H6          0.9347    1.2551    2.7479 H         1 <0>         0.1305
     40 H7          0.4770    2.9007    4.4718 H         1 <0>         0.1226
     41 H8         -1.5950    2.8468    5.7726 H         1 <0>         0.1225
     42 H9         -3.2846    1.1460    5.3951 H         1 <0>         0.1284
     43 H10        -4.0401   -0.8514    4.1530 H         1 <0>         0.1328
     44 H11        -0.5432   -2.7321    0.2293 H         1 <0>         0.1539
     45 H12        -2.2379   -4.4261   -0.1550 H         1 <0>         0.1204
     46 H13        -4.3102   -4.4792    1.1455 H         1 <0>         0.1206
     47 H14        -4.7559   -2.8484    2.8867 H         1 <0>         0.1270
     48 H15         0.8923    1.2959   -2.2812 H         1 <0>         0.1151
     49 H16        -2.0734    0.8578   -1.8039 H         1 <0>         0.1073
     50 H17        -1.1651    2.3975   -1.9225 H         1 <0>         0.1087
     51 H18         0.9822   -0.2809   -4.0322 H         1 <0>         0.0830
     52 H19        -0.4403   -1.1779   -3.4223 H         1 <0>         0.0946
     53 H20        -0.2556   -0.3893   -6.2472 H         1 <0>         0.1118
     54 H21        -1.3933    2.4087   -6.5834 H         1 <0>         0.0758
     55 H22         0.3126    2.1329   -6.1568 H         1 <0>         0.0617
     56 H23        -1.1678    1.2720   -8.6671 H         1 <0>         0.0762
     57 H24         0.2972    2.2743   -8.5370 H         1 <0>         0.0633
     58 H25         1.5224    0.3932   -8.7976 H         1 <0>         0.0617
     59 H26         0.9147   -0.1554   -7.2171 H         1 <0>         0.0677
     60 H27        -0.6880   -0.5338   -9.7713 H         1 <0>         0.0659
     61 H28         0.5198   -1.7261   -9.2343 H         1 <0>         0.0612
     62 H29        -1.5400   -2.4864   -8.3035 H         1 <0>         0.0620
     63 H30        -0.7044   -1.6778   -6.9559 H         1 <0>         0.0683
     64 H31        -2.2566    0.2481   -8.4916 H         1 <0>         0.0758
     65 H32        -3.2904   -1.0991   -7.9585 H         1 <0>         0.0632
     66 H33        -2.7503   -0.7468   -5.6630 H         1 <0>         0.0625
     67 H34        -3.0134    0.8855   -6.3223 H         1 <0>         0.0757
@<TRIPOS>BOND
     1    1    2 1
     2    1   34 1
     3    1   35 1
     4    1   36 1
     5    2    3 1
     6    2   18 am
     7    3    4 1
     8    3   37 1
     9    3   38 1
    10    4   13 ar
    11    4    5 ar
    12    5   10 ar
    13    5    6 ar
    14    6    7 ar
    15    6   39 1
    16    7    8 ar
    17    7   40 1
    18    8    9 ar
    19    8   41 1
    20    9   10 ar
    21    9   42 1
    22   10   11 ar
    23   11   12 ar
    24   11   43 1
    25   12   17 ar
    26   12   13 ar
    27   13   14 ar
    28   14   15 ar
    29   14   44 1
    30   15   16 ar
    31   15   45 1
    32   16   17 ar
    33   16   46 1
    34   17   47 1
    35   18   19 2
    36   18   20 1
    37   20   25 1
    38   20   21 1
    39   20   48 1
    40   21   22 1
    41   21   49 1
    42   21   50 1
    43   22   23 2
    44   22   24 am
    45   24   25 1
    46   24   26 1
    47   25   51 1
    48   25   52 1
    49   26   33 1
    50   26   27 1
    51   26   53 1
    52   27   28 1
    53   27   54 1
    54   27   55 1
    55   28   29 1
    56   28   56 1
    57   28   57 1
    58   29   30 1
    59   29   58 1
    60   29   59 1
    61   30   31 1
    62   30   60 1
    63   30   61 1
    64   31   32 1
    65   31   62 1
    66   31   63 1
    67   32   33 1
    68   32   64 1
    69   32   65 1
    70   33   66 1
    71   33   67 1
@<TRIPOS>MOLECULE
CHEMBL414086__1
   67    71     0     0     0
SMALL
USER_CHARGES

@<TRIPOS>ATOM
      1 C1         -0.0573    1.4349    0.0016 C.3       1 <0>         0.0574
      2 N1         -0.0130   -0.0294   -0.0122 N.am      1 <0>        -0.6057
      3 C2          0.0178   -0.7732    1.2496 C.3       1 <0>         0.1508
      4 C3         -1.3866   -0.9353    1.7715 C.ar      1 <0>        -0.0865
      5 C4         -2.1166   -2.0850    1.4752 C.ar      1 <0>        -0.0299
      6 C5         -1.5631   -3.1167    0.6865 C.ar      1 <0>        -0.1006
      7 C6         -2.3015   -4.2234    0.4172 C.ar      1 <0>        -0.1178
      8 C7         -3.6021   -4.3732    0.9001 C.ar      1 <0>        -0.1091
      9 C8         -4.1940   -3.4198    1.6638 C.ar      1 <0>        -0.1161
     10 C9         -3.4833   -2.2427    1.9831 C.ar      1 <0>        -0.0502
     11 C10        -4.0608   -1.2436    2.7644 C.ar      1 <0>        -0.0856
     12 C11        -3.3312   -0.0936    3.0600 C.ar      1 <0>        -0.0541
     13 C12        -1.9618    0.0608    2.5584 C.ar      1 <0>        -0.0338
     14 C13        -1.2493    1.2355    2.8828 C.ar      1 <0>        -0.1225
     15 C14        -1.8395    2.1860    3.6516 C.ar      1 <0>        -0.1078
     16 C15        -3.1399    2.0358    4.1347 C.ar      1 <0>        -0.1201
     17 C16        -3.8851    0.9377    3.8487 C.ar      1 <0>        -0.0998
     18 C17        -0.0006   -0.6922   -1.1856 C.2       1 <0>         0.5244
     19 O1         -0.0520   -1.9038   -1.1983 O.2       1 <0>        -0.5190
     20 C18         0.0772    0.0723   -2.4820 C.3       1 <0>        -0.1242
     21 C19         1.4494    0.7691   -2.6321 C.3       1 <0>        -0.1471
     22 C20         2.2851   -0.2213   -3.4125 C.2       1 <0>         0.5170
     23 O2          3.4941   -0.1906   -3.5034 O.2       1 <0>        -0.5242
     24 N2          1.4927   -1.1407   -3.9903 N.am      1 <0>        -0.6092
     25 C21         0.0781   -0.8888   -3.6914 C.3       1 <0>         0.1158
     26 C22         1.9788   -2.2513   -4.8128 C.3       1 <0>         0.1441
     27 C23         2.9141   -3.1310   -3.9806 C.3       1 <0>        -0.1281
     28 C24         3.1051   -4.4775   -4.6813 C.3       1 <0>        -0.1246
     29 C25         1.7537   -4.9868   -5.1859 C.3       1 <0>        -0.1293
     30 C26         1.7473   -4.9870   -6.7159 C.3       1 <0>        -0.1214
     31 C27         1.5786   -3.5538   -7.2244 C.3       1 <0>        -0.1294
     32 C28         2.9001   -2.7987   -7.0696 C.3       1 <0>        -0.1256
     33 C29         2.7392   -1.6976   -6.0196 C.3       1 <0>        -0.1288
     34 H1          0.9588    1.8292   -0.0017 H         1 <0>         0.0639
     35 H2         -0.5880    1.7907   -0.8815 H         1 <0>         0.0755
     36 H3         -0.5759    1.7743    0.8983 H         1 <0>         0.0860
     37 H4          0.4586   -1.7558    1.0814 H         1 <0>         0.1008
     38 H5          0.6156   -0.2267    1.9790 H         1 <0>         0.0903
     39 H6         -0.5589   -3.0259    0.2995 H         1 <0>         0.1544
     40 H7         -1.8713   -5.0084   -0.1869 H         1 <0>         0.1199
     41 H8         -4.1522   -5.2709    0.6597 H         1 <0>         0.1205
     42 H9         -5.2022   -3.5608    2.0245 H         1 <0>         0.1269
     43 H10        -5.0674   -1.3597    3.1381 H         1 <0>         0.1327
     44 H11        -0.2412    1.3769    2.5221 H         1 <0>         0.1306
     45 H12        -1.2880    3.0818    3.8959 H         1 <0>         0.1227
     46 H13        -3.5686    2.8185    4.7430 H         1 <0>         0.1225
     47 H14        -4.8896    0.8469    4.2349 H         1 <0>         0.1283
     48 H15        -0.7372    0.7929   -2.5571 H         1 <0>         0.1233
     49 H16         1.3451    1.7014   -3.1872 H         1 <0>         0.1157
     50 H17         1.8922    0.9543   -1.6534 H         1 <0>         0.1052
     51 H18        -0.4245   -1.8209   -3.4329 H         1 <0>         0.0967
     52 H19        -0.4104   -0.4204   -4.5458 H         1 <0>         0.0796
     53 H20         1.1326   -2.8454   -5.1578 H         1 <0>         0.1108
     54 H21         3.8796   -2.6363   -3.8747 H         1 <0>         0.0729
     55 H22         2.4788   -3.2931   -2.9945 H         1 <0>         0.0649
     56 H23         3.7849   -4.3550   -5.5245 H         1 <0>         0.0746
     57 H24         3.5248   -5.1967   -3.9780 H         1 <0>         0.0621
     58 H25         1.5887   -6.0009   -4.8218 H         1 <0>         0.0611
     59 H26         0.9601   -4.3356   -4.8193 H         1 <0>         0.0691
     60 H27         2.6892   -5.3944   -7.0832 H         1 <0>         0.0654
     61 H28         0.9211   -5.6000   -7.0759 H         1 <0>         0.0607
     62 H29         1.2920   -3.5727   -8.2758 H         1 <0>         0.0612
     63 H30         0.8034   -3.0518   -6.6455 H         1 <0>         0.0680
     64 H31         3.6795   -3.4917   -6.7527 H         1 <0>         0.0759
     65 H32         3.1774   -2.3523   -8.0245 H         1 <0>         0.0627
     66 H33         2.1825   -0.8647   -6.4490 H         1 <0>         0.0611
     67 H34         3.7229   -1.3519   -5.7019 H         1 <0>         0.0752
@<TRIPOS>BOND
     1    1    2 1
     2    1   34 1
     3    1   35 1
     4    1   36 1
     5    2    3 1
     6    2   18 am
     7    3    4 1
     8    3   37 1
     9    3   38 1
    10    4   13 ar
    11    4    5 ar
    12    5   10 ar
    13    5    6 ar
    14    6    7 ar
    15    6   39 1
    16    7    8 ar
    17    7   40 1
    18    8    9 ar
    19    8   41 1
    20    9   10 ar
    21    9   42 1
    22   10   11 ar
    23   11   12 ar
    24   11   43 1
    25   12   17 ar
    26   12   13 ar
    27   13   14 ar
    28   14   15 ar
    29   14   44 1
    30   15   16 ar
    31   15   45 1
    32   16   17 ar
    33   16   46 1
    34   17   47 1
    35   18   19 2
    36   18   20 1
    37   20   25 1
    38   20   21 1
    39   20   48 1
    40   21   22 1
    41   21   49 1
    42   21   50 1
    43   22   23 2
    44   22   24 am
    45   24   25 1
    46   24   26 1
    47   25   51 1
    48   25   52 1
    49   26   33 1
    50   26   27 1
    51   26   53 1
    52   27   28 1
    53   27   54 1
    54   27   55 1
    55   28   29 1
    56   28   56 1
    57   28   57 1
    58   29   30 1
    59   29   58 1
    60   29   59 1
    61   30   31 1
    62   30   60 1
    63   30   61 1
    64   31   32 1
    65   31   62 1
    66   31   63 1
    67   32   33 1
    68   32   64 1
    69   32   65 1
    70   33   66 1
    71   33   67 1
@<TRIPOS>MOLECULE
CHEMBL258931
   40    41     0     0     0
SMALL
USER_CHARGES

@<TRIPOS>ATOM
      1 C1         -0.0254    1.5331    0.0530 C.3       1 <0>        -0.1546
      2 C2         -0.0038    0.0038    0.0119 C.3       1 <0>        -0.1259
      3 C3         -1.4385   -0.5273    0.0325 C.3       1 <0>        -0.1213
      4 C4         -1.4168   -2.0566   -0.0086 C.3       1 <0>        -0.1210
      5 C5         -2.8515   -2.5877    0.0120 C.3       1 <0>        -0.1144
      6 C6         -2.8298   -4.1170   -0.0291 C.3       1 <0>        -0.0835
      7 C7         -4.2430   -4.6402   -0.0087 C.ar      1 <0>        -0.0543
      8 C8         -4.8627   -4.9060    1.1983 C.ar      1 <0>        -0.1138
      9 C9         -6.1586   -5.3864    1.2223 C.ar      1 <0>        -0.0915
     10 C10        -6.8398   -5.6022    0.0349 C.ar      1 <0>         0.0616
     11 C11        -6.2161   -5.3341   -1.1800 C.ar      1 <0>         0.1194
     12 C12        -4.9186   -4.8478   -1.1967 C.ar      1 <0>        -0.1336
     13 O1         -6.8801   -5.5446   -2.3479 O.3       1 <0>        -0.4925
     14 O2         -8.1146   -6.0752    0.0567 O.3       1 <0>        -0.2259
     15 C13        -8.3048   -7.4003   -0.1495 C.ar      1 <0>         0.5014
     16 N1         -7.2519   -8.1958   -0.2491 N.ar      1 <0>        -0.5519
     17 C14        -7.4019   -9.4947   -0.4504 C.ar      1 <0>         0.1860
     18 C15        -8.6806  -10.0187   -0.5569 C.ar      1 <0>        -0.2653
     19 C16        -9.7604   -9.1566   -0.4476 C.ar      1 <0>         0.1862
     20 N2         -9.5391   -7.8688   -0.2410 N.ar      1 <0>        -0.5227
     21 H1          0.9967    1.9115    0.0383 H         1 <0>         0.0536
     22 H2         -0.5657    1.9123   -0.8144 H         1 <0>         0.0533
     23 H3         -0.5227    1.8650    0.9644 H         1 <0>         0.0534
     24 H4          0.4935   -0.3281   -0.8995 H         1 <0>         0.0605
     25 H5          0.5366   -0.3754    0.8793 H         1 <0>         0.0606
     26 H6         -1.9357   -0.1954    0.9439 H         1 <0>         0.0614
     27 H7         -1.9788   -0.1482   -0.8349 H         1 <0>         0.0611
     28 H8         -0.9196   -2.3886   -0.9200 H         1 <0>         0.0626
     29 H9         -0.8765   -2.4358    0.8588 H         1 <0>         0.0630
     30 H10        -3.3487   -2.2558    0.9234 H         1 <0>         0.0651
     31 H11        -3.3918   -2.2086   -0.8554 H         1 <0>         0.0639
     32 H12        -2.3326   -4.4490   -0.9405 H         1 <0>         0.0759
     33 H13        -2.2895   -4.4962    0.8383 H         1 <0>         0.0775
     34 H14        -4.3330   -4.7383    2.1244 H         1 <0>         0.1344
     35 H15        -6.6402   -5.5940    2.1665 H         1 <0>         0.1343
     36 H16        -4.4337   -4.6351   -2.1380 H         1 <0>         0.1361
     37 H17        -7.3789   -4.7774   -2.6605 H         1 <0>         0.3950
     38 H18        -6.5387  -10.1387   -0.5312 H         1 <0>         0.1728
     39 H19        -8.8323  -11.0752   -0.7216 H         1 <0>         0.1537
     40 H20       -10.7700   -9.5321   -0.5262 H         1 <0>         0.1794
@<TRIPOS>BOND
     1    1    2 1
     2    1   21 1
     3    1   22 1
     4    1   23 1
     5    2    3 1
     6    2   24 1
     7    2   25 1
     8    3    4 1
     9    3   26 1
    10    3   27 1
    11    4    5 1
    12    4   28 1
    13    4   29 1
    14    5    6 1
    15    5   30 1
    16    5   31 1
    17    6    7 1
    18    6   32 1
    19    6   33 1
    20    7   12 ar
    21    7    8 ar
    22    8    9 ar
    23    8   34 1
    24    9   10 ar
    25    9   35 1
    26   10   11 ar
    27   10   14 1
    28   11   12 ar
    29   11   13 1
    30   12   36 1
    31   13   37 1
    32   14   15 1
    33   15   20 ar
    34   15   16 ar
    35   16   17 ar
    36   17   18 ar
    37   17   38 1
    38   18   19 ar
    39   18   39 1
    40   19   20 ar
    41   19   40 1
@<TRIPOS>MOLECULE
CHEMBL264417
   44    45     0     0     0
SMALL
USER_CHARGES

@<TRIPOS>ATOM
      1 C1          1.5170   -0.5718    0.5608 C.3       1 <0>        -0.1546
      2 C2          1.1787   -2.0354    0.2706 C.3       1 <0>        -0.1261
      3 C3         -0.3375   -2.2306    0.3333 C.3       1 <0>        -0.1211
      4 C4         -0.6757   -3.6942    0.0432 C.3       1 <0>        -0.1215
      5 C5         -2.1920   -3.8894    0.1059 C.3       1 <0>        -0.1143
      6 C6         -2.5302   -5.3530   -0.1843 C.3       1 <0>        -0.0805
      7 C7         -4.0236   -5.5452   -0.1224 C.ar      1 <0>        -0.0878
      8 C8         -4.6272   -5.8780    1.0762 C.ar      1 <0>        -0.0855
      9 C9         -5.9967   -6.0550    1.1383 C.ar      1 <0>        -0.1767
     10 C10        -6.7680   -5.8988   -0.0026 C.ar      1 <0>         0.0866
     11 C11        -6.1604   -5.5638   -1.2091 C.ar      1 <0>         0.0929
     12 C12        -4.7877   -5.3828   -1.2630 C.ar      1 <0>        -0.1051
     13 O1         -6.9128   -5.4095   -2.3313 O.3       1 <0>        -0.4850
     14 O2         -8.1152   -6.0730    0.0566 O.3       1 <0>        -0.2492
     15 C13        -8.6650   -6.3922    1.2575 C.ar      1 <0>         0.1393
     16 C14        -9.0870   -5.3884    2.1176 C.ar      1 <0>        -0.1269
     17 C15        -9.6461   -5.7158    3.3376 C.ar      1 <0>        -0.0389
     18 C16        -9.7853   -7.0423    3.7021 C.ar      1 <0>        -0.0503
     19 C17        -9.3652   -8.0445    2.8471 C.ar      1 <0>        -0.0385
     20 C18        -8.8107   -7.7228    1.6235 C.ar      1 <0>        -0.1255
     21 N1        -10.3847   -7.3901    5.0101 N.pl3     1 <0>         0.0317
     22 O3        -10.7520   -6.5147    5.7586 O.2       1 <0>        -0.1517
     23 O4        -10.5069   -8.5497    5.3298 O.3       1 <0>        -0.1518
     24 H1          2.5972   -0.4328    0.5161 H         1 <0>         0.0539
     25 H2          1.0375    0.0660   -0.1818 H         1 <0>         0.0534
     26 H3          1.1573   -0.3059    1.5548 H         1 <0>         0.0534
     27 H4          1.5384   -2.3013   -0.7234 H         1 <0>         0.0607
     28 H5          1.6582   -2.6733    1.0131 H         1 <0>         0.0606
     29 H6         -0.6972   -1.9647    1.3273 H         1 <0>         0.0609
     30 H7         -0.8169   -1.5927   -0.4092 H         1 <0>         0.0611
     31 H8         -0.3160   -3.9601   -0.9508 H         1 <0>         0.0629
     32 H9         -0.1963   -4.3321    0.7857 H         1 <0>         0.0627
     33 H10        -2.5517   -3.6235    1.0999 H         1 <0>         0.0635
     34 H11        -2.6714   -3.2515   -0.6366 H         1 <0>         0.0636
     35 H12        -2.1705   -5.6189   -1.1782 H         1 <0>         0.0755
     36 H13        -2.0508   -5.9909    0.5583 H         1 <0>         0.0756
     37 H14        -4.0272   -6.0003    1.9658 H         1 <0>         0.1316
     38 H15        -6.4656   -6.3152    2.0757 H         1 <0>         0.1297
     39 H16        -4.3141   -5.1188   -2.1971 H         1 <0>         0.1405
     40 H17        -7.2327   -4.5075   -2.4693 H         1 <0>         0.3906
     41 H18        -8.9782   -4.3522    1.8336 H         1 <0>         0.1564
     42 H19        -9.9744   -4.9349    4.0076 H         1 <0>         0.1631
     43 H20        -9.4744   -9.0798    3.1345 H         1 <0>         0.1633
     44 H21        -8.4872   -8.5060    0.9540 H         1 <0>         0.1574
@<TRIPOS>BOND
     1    1    2 1
     2    1   24 1
     3    1   25 1
     4    1   26 1
     5    2    3 1
     6    2   27 1
     7    2   28 1
     8    3    4 1
     9    3   29 1
    10    3   30 1
    11    4    5 1
    12    4   31 1
    13    4   32 1
    14    5    6 1
    15    5   33 1
    16    5   34 1
    17    6    7 1
    18    6   35 1
    19    6   36 1
    20    7   12 ar
    21    7    8 ar
    22    8    9 ar
    23    8   37 1
    24    9   10 ar
    25    9   38 1
    26   10   11 ar
    27   10   14 1
    28   11   12 ar
    29   11   13 1
    30   12   39 1
    31   13   40 1
    32   14   15 1
    33   15   20 ar
    34   15   16 ar
    35   16   17 ar
    36   16   41 1
    37   17   18 ar
    38   17   42 1
    39   18   19 ar
    40   18   21 1
    41   19   20 ar
    42   19   43 1
    43   20   44 1
    44   21   22 2
    45   21   23 1
@<TRIPOS>MOLECULE
CHEMBL264176
   49    50     0     0     0
SMALL
USER_CHARGES

@<TRIPOS>ATOM
      1 C1          0.0178    1.4826    0.0695 C.3       1 <0>        -0.1546
      2 C2          0.0541   -0.0469    0.0630 C.3       1 <0>        -0.1260
      3 C3          0.7579   -0.5350   -1.2048 C.3       1 <0>        -0.1212
      4 C4          0.7943   -2.0645   -1.2112 C.3       1 <0>        -0.1213
      5 C5          1.4981   -2.5526   -2.4790 C.3       1 <0>        -0.1140
      6 C6          1.5344   -4.0821   -2.4855 C.3       1 <0>        -0.0842
      7 C7          2.2277   -4.5629   -3.7342 C.ar      1 <0>        -0.0586
      8 C8          1.4946   -4.7999   -4.8823 C.ar      1 <0>        -0.1129
      9 C9          2.1257   -5.2409   -6.0303 C.ar      1 <0>        -0.1033
     10 C10         3.4965   -5.4460   -6.0324 C.ar      1 <0>         0.0513
     11 C11         4.2344   -5.2069   -4.8767 C.ar      1 <0>         0.1034
     12 C12         3.5960   -4.7603   -3.7308 C.ar      1 <0>        -0.1332
     13 O1          5.5795   -5.4066   -4.8735 O.3       1 <0>        -0.4884
     14 O2          4.1188   -5.8802   -7.1605 O.3       1 <0>        -0.2556
     15 C13         4.4209   -7.2024   -7.2542 C.ar      1 <0>         0.1038
     16 C14         4.0004   -8.0825   -6.2697 C.ar      1 <0>        -0.1699
     17 C15         4.3088   -9.4265   -6.3663 C.ar      1 <0>        -0.0955
     18 C16         5.0364   -9.8972   -7.4440 C.ar      1 <0>        -0.1326
     19 C17         5.4595   -9.0262   -8.4300 C.ar      1 <0>        -0.0884
     20 C18         5.1490   -7.6770   -8.3432 C.ar      1 <0>         0.1196
     21 N1          5.5715   -6.7930   -9.3447 N.am      1 <0>        -0.6660
     22 C19         5.6290   -7.2050  -10.6267 C.2       1 <0>         0.5105
     23 O3          5.3912   -8.3618  -10.9032 O.2       1 <0>        -0.5289
     24 C20         5.9887   -6.2284  -11.7166 C.3       1 <0>        -0.1715
     25 H1          1.0362    1.8704    0.0472 H         1 <0>         0.0534
     26 H2         -0.5252    1.8369   -0.8067 H         1 <0>         0.0534
     27 H3         -0.4837    1.8303    0.9727 H         1 <0>         0.0538
     28 H4          0.5970   -0.4012    0.9393 H         1 <0>         0.0606
     29 H5         -0.9644   -0.4346    0.0853 H         1 <0>         0.0607
     30 H6          0.2150   -0.1807   -2.0810 H         1 <0>         0.0613
     31 H7          1.7764   -0.1473   -1.2271 H         1 <0>         0.0610
     32 H8          1.3372   -2.4188   -0.3350 H         1 <0>         0.0628
     33 H9         -0.2242   -2.4523   -1.1889 H         1 <0>         0.0631
     34 H10         0.9552   -2.1983   -3.3553 H         1 <0>         0.0648
     35 H11         2.5166   -2.1649   -2.5013 H         1 <0>         0.0637
     36 H12         2.0773   -4.4364   -1.6092 H         1 <0>         0.0761
     37 H13         0.5160   -4.4699   -2.4632 H         1 <0>         0.0775
     38 H14         0.4265   -4.6405   -4.8820 H         1 <0>         0.1341
     39 H15         1.5506   -5.4260   -6.9256 H         1 <0>         0.1362
     40 H16         4.1667   -4.5704   -2.8339 H         1 <0>         0.1361
     41 H17         6.0934   -4.6272   -5.1255 H         1 <0>         0.3937
     42 H18         3.4320   -7.7182   -5.4268 H         1 <0>         0.1281
     43 H19         3.9809  -10.1108   -5.5978 H         1 <0>         0.1272
     44 H20         5.2749  -10.9481   -7.5150 H         1 <0>         0.1296
     45 H21         6.0282   -9.3966   -9.2701 H         1 <0>         0.1472
     46 H22         5.8226   -5.8846   -9.1155 H         1 <0>         0.4134
     47 H23         7.0692   -6.2257  -11.8599 H         1 <0>         0.0980
     48 H24         5.4997   -6.5236  -12.6449 H         1 <0>         0.0984
     49 H25         5.6573   -5.2294  -11.4331 H         1 <0>         0.0830
@<TRIPOS>BOND
     1    1    2 1
     2    1   25 1
     3    1   26 1
     4    1   27 1
     5    2    3 1
     6    2   28 1
     7    2   29 1
     8    3    4 1
     9    3   30 1
    10    3   31 1
    11    4    5 1
    12    4   32 1
    13    4   33 1
    14    5    6 1
    15    5   34 1
    16    5   35 1
    17    6    7 1
    18    6   36 1
    19    6   37 1
    20    7   12 ar
    21    7    8 ar
    22    8    9 ar
    23    8   38 1
    24    9   10 ar
    25    9   39 1
    26   10   11 ar
    27   10   14 1
    28   11   12 ar
    29   11   13 1
    30   12   40 1
    31   13   41 1
    32   14   15 1
    33   15   20 ar
    34   15   16 ar
    35   16   17 ar
    36   16   42 1
    37   17   18 ar
    38   17   43 1
    39   18   19 ar
    40   18   44 1
    41   19   20 ar
    42   19   45 1
    43   20   21 1
    44   21   22 am
    45   21   46 1
    46   22   23 2
    47   22   24 1
    48   24   47 1
    49   24   48 1
    50   24   49 1
@<TRIPOS>MOLECULE
CHEMBL240533
   49    53     0     0     0
SMALL
USER_CHARGES

@<TRIPOS>ATOM
      1 C1         -0.3262    1.0995   -0.3273 C.ar      1 <0>        -0.0975
      2 C2         -0.0324   -0.0193   -1.0866 C.ar      1 <0>        -0.1241
      3 C3          1.2129   -0.6068   -1.0016 C.ar      1 <0>        -0.0949
      4 C4          2.1774   -0.0702   -0.1472 C.ar      1 <0>        -0.1290
      5 C5          1.8745    1.0585    0.6160 C.ar      1 <0>        -0.0682
      6 C6          0.6253    1.6363    0.5216 C.ar      1 <0>        -0.1224
      7 C7          3.5139   -0.6949   -0.0507 C.2       1 <0>         0.5623
      8 O1          4.5115   -0.0007   -0.0622 O.2       1 <0>        -0.5324
      9 N1          3.6260   -2.0342    0.0501 N.am      1 <0>        -0.6075
     10 C8          2.4392   -2.8993   -0.0303 C.3       1 <0>         0.0990
     11 C9          2.4445   -3.8462    1.1745 C.3       1 <0>         0.0425
     12 N2          3.7288   -4.5571    1.2289 N.3       1 <0>        -0.5124
     13 C10         4.8452   -3.6254    1.4375 C.3       1 <0>         0.0337
     14 C11         4.9390   -2.6699    0.2373 C.3       1 <0>         0.1186
     15 C12         3.7110   -5.5979    2.2655 C.3       1 <0>         0.1651
     16 C13         3.1521   -5.0406    3.5517 C.ar      1 <0>        -0.1231
     17 C14         3.5698   -4.0172    4.3758 C.ar      1 <0>        -0.0967
     18 C15         2.8524   -3.7116    5.5188 C.ar      1 <0>        -0.1128
     19 C16         1.7150   -4.4316    5.8370 C.ar      1 <0>        -0.1130
     20 C17         1.2897   -5.4571    5.0181 C.ar      1 <0>        -0.0965
     21 C18         2.0086   -5.7710    3.8634 C.ar      1 <0>        -0.0483
     22 C19         1.7833   -6.8042    2.8223 C.ar      1 <0>        -0.0578
     23 C20         2.7859   -6.7191    1.8601 C.ar      1 <0>        -0.0774
     24 C21         2.7926   -7.5815    0.7844 C.ar      1 <0>        -0.0800
     25 C22         1.7999   -8.5370    0.6565 C.ar      1 <0>        -0.1143
     26 C23         0.7992   -8.6290    1.6070 C.ar      1 <0>        -0.1146
     27 C24         0.7851   -7.7706    2.6868 C.ar      1 <0>        -0.0977
     28 H1         -1.3012    1.5583   -0.4009 H         1 <0>         0.1283
     29 H2         -0.7798   -0.4337   -1.7470 H         1 <0>         0.1305
     30 H3          1.4408   -1.4802   -1.5945 H         1 <0>         0.1317
     31 H4          2.6163    1.4783    1.2793 H         1 <0>         0.1298
     32 H5          0.3896    2.5097    1.1116 H         1 <0>         0.1306
     33 H6          1.5377   -2.2869   -0.0108 H         1 <0>         0.1022
     34 H7          2.4710   -3.4798   -0.9523 H         1 <0>         0.0804
     35 H8          2.3083   -3.2706    2.0901 H         1 <0>         0.0462
     36 H9          1.6335   -4.5674    1.0738 H         1 <0>         0.0877
     37 H10         4.6756   -3.0529    2.3494 H         1 <0>         0.0473
     38 H11         5.7753   -4.1866    1.5276 H         1 <0>         0.0915
     39 H12         5.2065   -3.2287   -0.6595 H         1 <0>         0.0792
     40 H13         5.6911   -1.9058    0.4339 H         1 <0>         0.0984
     41 H14         4.7179   -5.9823    2.4281 H         1 <0>         0.1094
     42 H15         4.4578   -3.4541    4.1293 H         1 <0>         0.1223
     43 H16         3.1810   -2.9099    6.1636 H         1 <0>         0.1274
     44 H17         1.1579   -4.1902    6.7302 H         1 <0>         0.1277
     45 H18         0.4014   -6.0170    5.2705 H         1 <0>         0.1237
     46 H19         3.5728   -7.5110    0.0410 H         1 <0>         0.1280
     47 H20         1.8063   -9.2116   -0.1869 H         1 <0>         0.1280
     48 H21         0.0258   -9.3756    1.5033 H         1 <0>         0.1268
     49 H22         0.0019   -7.8459    3.4266 H         1 <0>         0.1220
@<TRIPOS>BOND
     1    1    6 ar
     2    1    2 ar
     3    1   28 1
     4    2    3 ar
     5    2   29 1
     6    3    4 ar
     7    3   30 1
     8    4    5 ar
     9    4    7 1
    10    5    6 ar
    11    5   31 1
    12    6   32 1
    13    7    8 2
    14    7    9 am
    15    9   14 1
    16    9   10 1
    17   10   11 1
    18   10   33 1
    19   10   34 1
    20   11   12 1
    21   11   35 1
    22   11   36 1
    23   12   13 1
    24   12   15 1
    25   13   14 1
    26   13   37 1
    27   13   38 1
    28   14   39 1
    29   14   40 1
    30   15   23 1
    31   15   16 1
    32   15   41 1
    33   16   21 ar
    34   16   17 ar
    35   17   18 ar
    36   17   42 1
    37   18   19 ar
    38   18   43 1
    39   19   20 ar
    40   19   44 1
    41   20   21 ar
    42   20   45 1
    43   21   22 1
    44   22   27 ar
    45   22   23 ar
    46   23   24 ar
    47   24   25 ar
    48   24   46 1
    49   25   26 ar
    50   25   47 1
    51   26   27 ar
    52   26   48 1
    53   27   49 1
@<TRIPOS>MOLECULE
CHEMBL392127
   52    56     0     0     0
SMALL
USER_CHARGES

@<TRIPOS>ATOM
      1 C1         -0.4704    1.6166    0.5140 C.3       1 <0>        -0.1208
      2 C2         -0.3361    0.1200    0.3994 C.ar      1 <0>        -0.0625
      3 C3         -1.0716   -0.7033    1.2335 C.ar      1 <0>        -0.1258
      4 C4         -0.9534   -2.0742    1.1338 C.ar      1 <0>        -0.0896
      5 C5         -0.0895   -2.6302    0.1889 C.ar      1 <0>        -0.1355
      6 C6          0.6495   -1.7939   -0.6495 C.ar      1 <0>        -0.0629
      7 C7          0.5177   -0.4248   -0.5432 C.ar      1 <0>        -0.1243
      8 C8          0.0425   -4.0984    0.0768 C.2       1 <0>         0.5631
      9 O1          0.0388   -4.6272   -1.0177 O.2       1 <0>        -0.5332
     10 N1          0.1669   -4.8506    1.1881 N.am      1 <0>        -0.6077
     11 C9          0.0779   -4.2432    2.5247 C.3       1 <0>         0.0992
     12 C10         1.2977   -4.6828    3.3414 C.3       1 <0>         0.0426
     13 N2          1.3880   -6.1490    3.3302 N.3       1 <0>        -0.5124
     14 C11         1.6028   -6.6593    1.9696 C.3       1 <0>         0.0337
     15 C12         0.3894   -6.3016    1.0966 C.3       1 <0>         0.1187
     16 C13         2.4407   -6.6186    4.2409 C.3       1 <0>         0.1650
     17 C14         3.7068   -5.8268    4.0236 C.ar      1 <0>        -0.1229
     18 C15         4.5222   -5.6685    2.9231 C.ar      1 <0>        -0.0966
     19 C16         5.6462   -4.8656    3.0035 C.ar      1 <0>        -0.1128
     20 C17         5.9543   -4.2203    4.1876 C.ar      1 <0>        -0.1130
     21 C18         5.1441   -4.3730    5.2936 C.ar      1 <0>        -0.0965
     22 C19         4.0085   -5.1815    5.2198 C.ar      1 <0>        -0.0483
     23 C20         2.9800   -5.5175    6.2354 C.ar      1 <0>        -0.0577
     24 C21         2.0359   -6.3728    5.6737 C.ar      1 <0>        -0.0773
     25 C22         0.9746   -6.8280    6.4268 C.ar      1 <0>        -0.0800
     26 C23         0.8432   -6.4351    7.7471 C.ar      1 <0>        -0.1144
     27 C24         1.7758   -5.5853    8.3140 C.ar      1 <0>        -0.1146
     28 C25         2.8411   -5.1254    7.5679 C.ar      1 <0>        -0.0977
     29 H1         -1.2689    1.9612   -0.1430 H         1 <0>         0.0757
     30 H2         -0.7074    1.8823    1.5442 H         1 <0>         0.0700
     31 H3          0.4682    2.0889    0.2237 H         1 <0>         0.0698
     32 H4         -1.7393   -0.2718    1.9644 H         1 <0>         0.1300
     33 H5         -1.5277   -2.7158    1.7856 H         1 <0>         0.1318
     34 H6          1.3196   -2.2179   -1.3826 H         1 <0>         0.1299
     35 H7          1.0856    0.2233   -1.1942 H         1 <0>         0.1300
     36 H8          0.0704   -3.1571    2.4335 H         1 <0>         0.1022
     37 H9         -0.8339   -4.5783    3.0191 H         1 <0>         0.0801
     38 H10         2.2011   -4.2594    2.9025 H         1 <0>         0.0462
     39 H11         1.1932   -4.3327    4.3683 H         1 <0>         0.0875
     40 H12         2.5019   -6.2083    1.5497 H         1 <0>         0.0472
     41 H13         1.7196   -7.7425    2.0016 H         1 <0>         0.0913
     42 H14        -0.4931   -6.8308    1.4565 H         1 <0>         0.0789
     43 H15         0.5879   -6.5770    0.0609 H         1 <0>         0.0983
     44 H16         2.6286   -7.6803    4.0809 H         1 <0>         0.1094
     45 H17         4.2836   -6.1718    1.9978 H         1 <0>         0.1223
     46 H18         6.2841   -4.7428    2.1408 H         1 <0>         0.1274
     47 H19         6.8327   -3.5947    4.2466 H         1 <0>         0.1277
     48 H20         5.3885   -3.8676    6.2163 H         1 <0>         0.1237
     49 H21         0.2451   -7.4912    5.9860 H         1 <0>         0.1280
     50 H22         0.0111   -6.7923    8.3357 H         1 <0>         0.1280
     51 H23         1.6694   -5.2804    9.3445 H         1 <0>         0.1268
     52 H24         3.5670   -4.4621    8.0144 H         1 <0>         0.1220
@<TRIPOS>BOND
     1    1    2 1
     2    1   29 1
     3    1   30 1
     4    1   31 1
     5    2    7 ar
     6    2    3 ar
     7    3    4 ar
     8    3   32 1
     9    4    5 ar
    10    4   33 1
    11    5    6 ar
    12    5    8 1
    13    6    7 ar
    14    6   34 1
    15    7   35 1
    16    8    9 2
    17    8   10 am
    18   10   15 1
    19   10   11 1
    20   11   12 1
    21   11   36 1
    22   11   37 1
    23   12   13 1
    24   12   38 1
    25   12   39 1
    26   13   14 1
    27   13   16 1
    28   14   15 1
    29   14   40 1
    30   14   41 1
    31   15   42 1
    32   15   43 1
    33   16   24 1
    34   16   17 1
    35   16   44 1
    36   17   22 ar
    37   17   18 ar
    38   18   19 ar
    39   18   45 1
    40   19   20 ar
    41   19   46 1
    42   20   21 ar
    43   20   47 1
    44   21   22 ar
    45   21   48 1
    46   22   23 1
    47   23   28 ar
    48   23   24 ar
    49   24   25 ar
    50   25   26 ar
    51   25   49 1
    52   26   27 ar
    53   26   50 1
    54   27   28 ar
    55   27   51 1
    56   28   52 1
@<TRIPOS>MOLECULE
CHEMBL429332
   43    44     0     0     0
SMALL
USER_CHARGES

@<TRIPOS>ATOM
      1 C1         -0.0254    1.5331    0.0526 C.3       1 <0>        -0.1546
      2 C2         -0.0037    0.0038    0.0117 C.3       1 <0>        -0.1258
      3 C3         -1.4385   -0.5273    0.0323 C.3       1 <0>        -0.1214
      4 C4         -1.4168   -2.0566   -0.0087 C.3       1 <0>        -0.1206
      5 C5         -2.8515   -2.5877    0.0120 C.3       1 <0>        -0.1142
      6 C6         -2.8298   -4.1170   -0.0290 C.3       1 <0>        -0.0838
      7 C7         -4.2430   -4.6402   -0.0087 C.ar      1 <0>        -0.0303
      8 C8         -4.8628   -4.9059    1.1983 C.ar      1 <0>        -0.1425
      9 C9         -6.1587   -5.3863    1.2224 C.ar      1 <0>        -0.0671
     10 C10        -6.8398   -5.6022    0.0349 C.ar      1 <0>         0.0547
     11 C11        -6.2160   -5.3343   -1.1800 C.ar      1 <0>         0.1398
     12 C12        -4.9185   -4.8479   -1.1967 C.ar      1 <0>        -0.1977
     13 O1         -6.8799   -5.5449   -2.3479 O.3       1 <0>        -0.3089
     14 C13        -6.1772   -5.2479   -3.5562 C.3       1 <0>         0.0260
     15 O2         -8.1146   -6.0752    0.0567 O.3       1 <0>        -0.2176
     16 C14        -8.3048   -7.4003   -0.1495 C.ar      1 <0>         0.4999
     17 N1         -7.2519   -8.1958   -0.2491 N.ar      1 <0>        -0.5551
     18 C15        -7.4019   -9.4947   -0.4504 C.ar      1 <0>         0.1848
     19 C16        -8.6806  -10.0187   -0.5569 C.ar      1 <0>        -0.2675
     20 C17        -9.7604   -9.1566   -0.4476 C.ar      1 <0>         0.1865
     21 N2         -9.5391   -7.8688   -0.2410 N.ar      1 <0>        -0.5219
     22 H1          0.9967    1.9115    0.0379 H         1 <0>         0.0536
     23 H2         -0.5657    1.9121   -0.8149 H         1 <0>         0.0533
     24 H3         -0.5227    1.8652    0.9639 H         1 <0>         0.0536
     25 H4          0.4936   -0.3283   -0.8997 H         1 <0>         0.0603
     26 H5          0.5365   -0.3753    0.8791 H         1 <0>         0.0607
     27 H6         -1.9358   -0.1953    0.9436 H         1 <0>         0.0617
     28 H7         -1.9787   -0.1483   -0.8352 H         1 <0>         0.0609
     29 H8         -0.9195   -2.3887   -0.9200 H         1 <0>         0.0620
     30 H9         -0.8765   -2.4357    0.8588 H         1 <0>         0.0631
     31 H10        -3.3488   -2.2557    0.9233 H         1 <0>         0.0660
     32 H11        -3.3917   -2.2087   -0.8555 H         1 <0>         0.0634
     33 H12        -2.3325   -4.4491   -0.9403 H         1 <0>         0.0743
     34 H13        -2.2896   -4.4961    0.8385 H         1 <0>         0.0779
     35 H14        -4.3331   -4.7381    2.1244 H         1 <0>         0.1335
     36 H15        -6.6403   -5.5937    2.1665 H         1 <0>         0.1370
     37 H16        -4.4336   -4.6354   -2.1380 H         1 <0>         0.1352
     38 H17        -6.8191   -5.4598   -4.4113 H         1 <0>         0.1018
     39 H18        -5.8973   -4.1945   -3.5643 H         1 <0>         0.0590
     40 H19        -5.2792   -5.8629   -3.6148 H         1 <0>         0.0574
     41 H20        -6.5387  -10.1387   -0.5312 H         1 <0>         0.1717
     42 H21        -8.8323  -11.0752   -0.7216 H         1 <0>         0.1527
     43 H22       -10.7700   -9.5321   -0.5262 H         1 <0>         0.1786
@<TRIPOS>BOND
     1    1    2 1
     2    1   22 1
     3    1   23 1
     4    1   24 1
     5    2    3 1
     6    2   25 1
     7    2   26 1
     8    3    4 1
     9    3   27 1
    10    3   28 1
    11    4    5 1
    12    4   29 1
    13    4   30 1
    14    5    6 1
    15    5   31 1
    16    5   32 1
    17    6    7 1
    18    6   33 1
    19    6   34 1
    20    7   12 ar
    21    7    8 ar
    22    8    9 ar
    23    8   35 1
    24    9   10 ar
    25    9   36 1
    26   10   11 ar
    27   10   15 1
    28   11   12 ar
    29   11   13 1
    30   12   37 1
    31   13   14 1
    32   14   38 1
    33   14   39 1
    34   14   40 1
    35   15   16 1
    36   16   21 ar
    37   16   17 ar
    38   17   18 ar
    39   18   19 ar
    40   18   41 1
    41   19   20 ar
    42   19   42 1
    43   20   21 ar
    44   20   43 1
@<TRIPOS>MOLECULE
CHEMBL264416
   44    45     0     0     0
SMALL
USER_CHARGES

@<TRIPOS>ATOM
      1 C1          1.5164   -0.5707    0.5606 C.3       1 <0>        -0.1546
      2 C2          1.1783   -2.0344    0.2705 C.3       1 <0>        -0.1262
      3 C3         -0.3379   -2.2297    0.3333 C.3       1 <0>        -0.1209
      4 C4         -0.6760   -3.6934    0.0432 C.3       1 <0>        -0.1217
      5 C5         -2.1922   -3.8887    0.1059 C.3       1 <0>        -0.1139
      6 C6         -2.5303   -5.3524   -0.1841 C.3       1 <0>        -0.0804
      7 C7         -4.0237   -5.5448   -0.1223 C.ar      1 <0>        -0.0885
      8 C8         -4.6272   -5.8775    1.0763 C.ar      1 <0>        -0.0856
      9 C9         -5.9967   -6.0546    1.1384 C.ar      1 <0>        -0.1771
     10 C10        -6.7680   -5.8987   -0.0025 C.ar      1 <0>         0.0837
     11 C11        -6.1604   -5.5638   -1.2090 C.ar      1 <0>         0.0928
     12 C12        -4.7877   -5.3826   -1.2630 C.ar      1 <0>        -0.1050
     13 O1         -6.9127   -5.4096   -2.3313 O.3       1 <0>        -0.4846
     14 O2         -8.1152   -6.0730    0.0566 O.3       1 <0>        -0.2419
     15 C13        -8.6650   -6.3922    1.2575 C.ar      1 <0>         0.0890
     16 C14        -9.0871   -5.3883    2.1177 C.ar      1 <0>        -0.0760
     17 C15        -9.6460   -5.7156    3.3376 C.ar      1 <0>        -0.1005
     18 C16        -9.7849   -7.0423    3.7023 C.ar      1 <0>        -0.0529
     19 C17        -9.3648   -8.0444    2.8474 C.ar      1 <0>        -0.0347
     20 C18        -8.8107   -7.7226    1.6234 C.ar      1 <0>        -0.0657
     21 N1         -9.5145   -9.4633    3.2413 N.pl3     1 <0>         0.0309
     22 O3        -10.0039   -9.7456    4.3101 O.2       1 <0>        -0.1474
     23 O4         -9.1473  -10.3400    2.4941 O.3       1 <0>        -0.1505
     24 H1          2.5966   -0.4316    0.5159 H         1 <0>         0.0539
     25 H2          1.0369    0.0670   -0.1820 H         1 <0>         0.0534
     26 H3          1.1566   -0.3048    1.5545 H         1 <0>         0.0532
     27 H4          1.5381   -2.3003   -0.7234 H         1 <0>         0.0608
     28 H5          1.6578   -2.6721    1.0131 H         1 <0>         0.0607
     29 H6         -0.6977   -1.9638    1.3272 H         1 <0>         0.0608
     30 H7         -0.8174   -1.5920   -0.4094 H         1 <0>         0.0610
     31 H8         -0.3162   -3.9593   -0.9508 H         1 <0>         0.0630
     32 H9         -0.1965   -4.3311    0.7858 H         1 <0>         0.0627
     33 H10        -2.5520   -3.6228    1.0999 H         1 <0>         0.0632
     34 H11        -2.6717   -3.2510   -0.6367 H         1 <0>         0.0635
     35 H12        -2.1705   -5.6184   -1.1781 H         1 <0>         0.0755
     36 H13        -2.0508   -5.9901    0.5585 H         1 <0>         0.0754
     37 H14        -4.0273   -5.9997    1.9659 H         1 <0>         0.1310
     38 H15        -6.4656   -6.3149    2.0758 H         1 <0>         0.1282
     39 H16        -4.3141   -5.1186   -2.1971 H         1 <0>         0.1403
     40 H17        -7.2328   -4.5076   -2.4694 H         1 <0>         0.3900
     41 H18        -8.9783   -4.3520    1.8337 H         1 <0>         0.1524
     42 H19        -9.9747   -4.9347    4.0074 H         1 <0>         0.1589
     43 H20       -10.2219   -7.2961    4.6568 H         1 <0>         0.1614
     44 H21        -8.4868   -8.5058    0.9541 H         1 <0>         0.1623
@<TRIPOS>BOND
     1    1    2 1
     2    1   24 1
     3    1   25 1
     4    1   26 1
     5    2    3 1
     6    2   27 1
     7    2   28 1
     8    3    4 1
     9    3   29 1
    10    3   30 1
    11    4    5 1
    12    4   31 1
    13    4   32 1
    14    5    6 1
    15    5   33 1
    16    5   34 1
    17    6    7 1
    18    6   35 1
    19    6   36 1
    20    7   12 ar
    21    7    8 ar
    22    8    9 ar
    23    8   37 1
    24    9   10 ar
    25    9   38 1
    26   10   11 ar
    27   10   14 1
    28   11   12 ar
    29   11   13 1
    30   12   39 1
    31   13   40 1
    32   14   15 1
    33   15   20 ar
    34   15   16 ar
    35   16   17 ar
    36   16   41 1
    37   17   18 ar
    38   17   42 1
    39   18   19 ar
    40   18   43 1
    41   19   20 ar
    42   19   21 1
    43   20   44 1
    44   21   22 2
    45   21   23 1
@<TRIPOS>MOLECULE
CHEMBL216579
   53    58     0     0     0
SMALL
USER_CHARGES

@<TRIPOS>ATOM
      1 C1         -0.3804   -0.6828    0.5494 C.ar      1 <0>        -0.1145
      2 C2          0.6251    0.2645    0.6215 C.ar      1 <0>        -0.1146
      3 C3          1.9485   -0.1173    0.4917 C.ar      1 <0>        -0.0809
      4 C4          2.2678   -1.4436    0.2906 C.ar      1 <0>        -0.0794
      5 C5          1.2631   -2.4043    0.2170 C.ar      1 <0>        -0.0567
      6 C6         -0.0703   -2.0116    0.3484 C.ar      1 <0>        -0.0980
      7 C7          1.8715   -3.7398   -0.0028 C.ar      1 <0>        -0.0492
      8 C8          1.2923   -5.0024   -0.1430 C.ar      1 <0>        -0.0969
      9 C9          2.0915   -6.1086   -0.3424 C.ar      1 <0>        -0.1133
     10 C10         3.4668   -5.9729   -0.4043 C.ar      1 <0>        -0.1127
     11 C11         4.0477   -4.7249   -0.2663 C.ar      1 <0>        -0.0968
     12 C12         3.2564   -3.6134   -0.0666 C.ar      1 <0>        -0.1242
     13 C13         3.5884   -2.1526    0.1154 C.3       1 <0>         0.1657
     14 N1          4.2839   -1.6402   -1.0727 N.3       1 <0>        -0.5115
     15 C14         3.4885   -1.8664   -2.2868 C.3       1 <0>         0.0420
     16 C15         4.1585   -1.1616   -3.4711 C.3       1 <0>         0.1050
     17 N2          5.5570   -1.6101   -3.5513 N.am      1 <0>        -0.6085
     18 C16         6.3804   -1.5421   -2.3345 C.3       1 <0>         0.1186
     19 C17         5.6229   -2.2319   -1.1949 C.3       1 <0>         0.0311
     20 C18         6.0704   -2.0707   -4.7092 C.2       1 <0>         0.5687
     21 O1          7.2464   -2.3719   -4.7755 O.2       1 <0>        -0.5352
     22 C19         5.2047   -2.2095   -5.8972 C.ar      1 <0>        -0.1591
     23 C20         4.3868   -1.1429   -6.2964 C.ar      1 <0>        -0.0730
     24 C21         3.5820   -1.2556   -7.3909 C.ar      1 <0>        -0.1307
     25 C22         3.5628   -2.4376   -8.1291 C.ar      1 <0>         0.1126
     26 C23         4.3803   -3.5163   -7.7386 C.ar      1 <0>        -0.1170
     27 C24         5.2054   -3.3967   -6.6231 C.ar      1 <0>        -0.0104
     28 C25         4.1270   -4.5873   -8.7067 C.2       1 <0>        -0.1952
     29 C26         3.2206   -4.1192   -9.5786 C.2       1 <0>         0.0499
     30 N3          2.8731   -2.8374   -9.2482 N.pl3     1 <0>        -0.5922
     31 H1          2.2338   -2.2917   -9.7324 H         1 <0>         0.4180
     32 H2         -1.4121   -0.3813    0.6553 H         1 <0>         0.1266
     33 H3          0.3767    1.3037    0.7790 H         1 <0>         0.1280
     34 H4          2.7320    0.6239    0.5476 H         1 <0>         0.1287
     35 H5         -0.8584   -2.7479    0.2924 H         1 <0>         0.1219
     36 H6          0.2190   -5.1128   -0.0950 H         1 <0>         0.1231
     37 H7          1.6419   -7.0846   -0.4503 H         1 <0>         0.1273
     38 H8          4.0880   -6.8426   -0.5603 H         1 <0>         0.1276
     39 H9          5.1216   -4.6211   -0.3149 H         1 <0>         0.1248
     40 H10         4.2080   -2.0162    1.0017 H         1 <0>         0.1104
     41 H11         3.4271   -2.9360   -2.4874 H         1 <0>         0.0441
     42 H12         2.4853   -1.4645   -2.1445 H         1 <0>         0.0879
     43 H13         3.6377   -1.4199   -4.3932 H         1 <0>         0.0996
     44 H14         4.1281   -0.0826   -3.3200 H         1 <0>         0.0788
     45 H15         7.3286   -2.0519   -2.5051 H         1 <0>         0.0979
     46 H16         6.5636   -0.4996   -2.0741 H         1 <0>         0.0775
     47 H17         6.1677   -2.0950   -0.2608 H         1 <0>         0.0907
     48 H18         5.5318   -3.2964   -1.4107 H         1 <0>         0.0504
     49 H19         4.3942   -0.2229   -5.7308 H         1 <0>         0.1320
     50 H20         2.9569   -0.4262   -7.6868 H         1 <0>         0.1268
     51 H21         5.8372   -4.2192   -6.3218 H         1 <0>         0.1301
     52 H22         4.5832   -5.5662   -8.7168 H         1 <0>         0.1503
     53 H23         2.8237   -4.6725  -10.4169 H         1 <0>         0.1739
@<TRIPOS>BOND
     1    1    6 ar
     2    1    2 ar
     3    1   32 1
     4    2    3 ar
     5    2   33 1
     6    3    4 ar
     7    3   34 1
     8    4   13 1
     9    4    5 ar
    10    5    6 ar
    11    5    7 1
    12    6   35 1
    13    7   12 ar
    14    7    8 ar
    15    8    9 ar
    16    8   36 1
    17    9   10 ar
    18    9   37 1
    19   10   11 ar
    20   10   38 1
    21   11   12 ar
    22   11   39 1
    23   12   13 1
    24   13   14 1
    25   13   40 1
    26   14   19 1
    27   14   15 1
    28   15   16 1
    29   15   41 1
    30   15   42 1
    31   16   17 1
    32   16   43 1
    33   16   44 1
    34   17   18 1
    35   17   20 am
    36   18   19 1
    37   18   45 1
    38   18   46 1
    39   19   47 1
    40   19   48 1
    41   20   21 2
    42   20   22 1
    43   22   27 ar
    44   22   23 ar
    45   23   24 ar
    46   23   49 1
    47   24   25 ar
    48   24   50 1
    49   25   30 1
    50   25   26 ar
    51   26   27 ar
    52   26   28 1
    53   27   51 1
    54   28   29 2
    55   28   52 1
    56   29   30 1
    57   29   53 1
    58   30   31 1
@<TRIPOS>MOLECULE
CHEMBL260399
   52    54     0     0     0
SMALL
USER_CHARGES

@<TRIPOS>ATOM
      1 C1          0.0248    1.3647    0.1270 C.3       1 <0>        -0.1545
      2 C2          0.0632   -0.1646    0.1006 C.3       1 <0>        -0.1260
      3 C3          0.7692   -0.6351   -1.1726 C.3       1 <0>        -0.1210
      4 C4          0.8077   -2.1643   -1.1991 C.3       1 <0>        -0.1214
      5 C5          1.5137   -2.6348   -2.4723 C.3       1 <0>        -0.1139
      6 C6          1.5522   -4.1641   -2.4988 C.3       1 <0>        -0.0786
      7 C7          2.2476   -4.6275   -3.7528 C.ar      1 <0>        -0.0951
      8 C8          1.5162   -4.8506   -4.9048 C.ar      1 <0>        -0.0866
      9 C9          2.1492   -5.2761   -6.0576 C.ar      1 <0>        -0.1783
     10 C10         3.5201   -5.4796   -6.0605 C.ar      1 <0>         0.0918
     11 C11         4.2563   -5.2546   -4.9010 C.ar      1 <0>         0.0855
     12 C12         3.6161   -4.8231   -3.7504 C.ar      1 <0>        -0.1066
     13 O1          5.6017   -5.4529   -4.8987 O.3       1 <0>        -0.4858
     14 O2          4.1444   -5.8986   -7.1935 O.3       1 <0>        -0.2478
     15 C13         3.3740   -6.2017   -8.2718 C.ar      1 <0>         0.0744
     16 C14         2.8160   -5.1846   -9.0332 C.ar      1 <0>        -0.1145
     17 C15         2.0339   -5.4917  -10.1288 C.ar      1 <0>        -0.1218
     18 C16         1.8057   -6.8189  -10.4687 C.ar      1 <0>         0.1393
     19 C17         2.3646   -7.8363   -9.7061 C.ar      1 <0>        -0.1023
     20 C18         3.1508   -7.5278   -8.6139 C.ar      1 <0>        -0.0988
     21 N1          1.0125   -7.1309  -11.5790 N.am      1 <0>        -0.6556
     22 C19         0.2159   -8.2177  -11.5540 C.2       1 <0>         0.5993
     23 O3          0.2449   -8.9711  -10.5999 O.2       1 <0>        -0.4834
     24 C20        -0.6910   -8.4933  -12.6837 C.2       1 <0>         0.0097
     25 C21        -1.5486   -9.5450  -12.7871 C.2       1 <0>        -0.1908
     26 C22        -2.2239   -9.4339  -14.0141 C.2       1 <0>         0.0769
     27 N2         -1.7938   -8.3654  -14.6224 N.2       1 <0>        -0.2867
     28 O4         -0.8241   -7.7460  -13.7973 O.3       1 <0>        -0.0713
     29 H1          1.0427    1.7541    0.1110 H         1 <0>         0.0534
     30 H2         -0.5176    1.7296   -0.7452 H         1 <0>         0.0532
     31 H3         -0.4782    1.6999    1.0341 H         1 <0>         0.0535
     32 H4          0.6056   -0.5295    0.9728 H         1 <0>         0.0606
     33 H5         -0.9547   -0.5540    0.1166 H         1 <0>         0.0605
     34 H6          0.2269   -0.2701   -2.0448 H         1 <0>         0.0608
     35 H7          1.7872   -0.2457   -1.1887 H         1 <0>         0.0610
     36 H8          1.3501   -2.5293   -0.3269 H         1 <0>         0.0625
     37 H9         -0.2103   -2.5537   -1.1831 H         1 <0>         0.0622
     38 H10         0.9713   -2.2699   -3.3445 H         1 <0>         0.0632
     39 H11         2.5317   -2.2454   -2.4883 H         1 <0>         0.0632
     40 H12         2.0945   -4.5291   -1.6266 H         1 <0>         0.0736
     41 H13         0.5342   -4.5535   -2.4827 H         1 <0>         0.0738
     42 H14         0.4478   -4.6924   -4.9038 H         1 <0>         0.1285
     43 H15         1.5754   -5.4503   -6.9558 H         1 <0>         0.1336
     44 H16         4.1856   -4.6439   -2.8504 H         1 <0>         0.1371
     45 H17         6.1151   -4.6697   -5.1401 H         1 <0>         0.3881
     46 H18         2.9932   -4.1527   -8.7686 H         1 <0>         0.1378
     47 H19         1.5994   -4.7000  -10.7211 H         1 <0>         0.1379
     48 H20         2.1873   -8.8685   -9.9697 H         1 <0>         0.1491
     49 H21         3.5888   -8.3188   -8.0233 H         1 <0>         0.1395
     50 H22         1.0362   -6.5649  -12.3664 H         1 <0>         0.4222
     51 H23        -1.6855  -10.3273  -12.0552 H         1 <0>         0.1763
     52 H24        -2.9715  -10.1174  -14.3888 H         1 <0>         0.2127
@<TRIPOS>BOND
     1    1    2 1
     2    1   29 1
     3    1   30 1
     4    1   31 1
     5    2    3 1
     6    2   32 1
     7    2   33 1
     8    3    4 1
     9    3   34 1
    10    3   35 1
    11    4    5 1
    12    4   36 1
    13    4   37 1
    14    5    6 1
    15    5   38 1
    16    5   39 1
    17    6    7 1
    18    6   40 1
    19    6   41 1
    20    7   12 ar
    21    7    8 ar
    22    8    9 ar
    23    8   42 1
    24    9   10 ar
    25    9   43 1
    26   10   11 ar
    27   10   14 1
    28   11   12 ar
    29   11   13 1
    30   12   44 1
    31   13   45 1
    32   14   15 1
    33   15   20 ar
    34   15   16 ar
    35   16   17 ar
    36   16   46 1
    37   17   18 ar
    38   17   47 1
    39   18   19 ar
    40   18   21 1
    41   19   20 ar
    42   19   48 1
    43   20   49 1
    44   21   22 am
    45   21   50 1
    46   22   23 2
    47   22   24 1
    48   24   28 1
    49   24   25 2
    50   25   26 1
    51   25   51 1
    52   26   27 2
    53   26   52 1
    54   27   28 1
@<TRIPOS>MOLECULE
CHEMBL428967
   52    54     0     0     0
SMALL
USER_CHARGES

@<TRIPOS>ATOM
      1 C1          0.0151    1.4836   -0.0434 C.3       1 <0>        -0.1547
      2 C2          0.0298   -0.0462   -0.0664 C.3       1 <0>        -0.1259
      3 C3         -1.4074   -0.5704   -0.0413 C.3       1 <0>        -0.1213
      4 C4         -1.3927   -2.1002   -0.0643 C.3       1 <0>        -0.1211
      5 C5         -2.8298   -2.6245   -0.0393 C.3       1 <0>        -0.1142
      6 C6         -2.8152   -4.1542   -0.0622 C.3       1 <0>        -0.0842
      7 C7         -4.2307   -4.6706   -0.0376 C.ar      1 <0>        -0.0576
      8 C8         -4.8532   -4.9193    1.1717 C.ar      1 <0>        -0.1129
      9 C9         -6.1513   -5.3934    1.1998 C.ar      1 <0>        -0.1022
     10 C10        -6.8320   -5.6201    0.0139 C.ar      1 <0>         0.0495
     11 C11        -6.2054   -5.3693   -1.2033 C.ar      1 <0>         0.1047
     12 C12        -4.9058   -4.8892   -1.2240 C.ar      1 <0>        -0.1331
     13 O1         -6.8690   -5.5901   -2.3696 O.3       1 <0>        -0.4889
     14 O2         -8.1088   -6.0869    0.0397 O.3       1 <0>        -0.2542
     15 C13        -8.3070   -7.4152   -0.1707 C.ar      1 <0>         0.1127
     16 C14        -7.2221   -8.2684   -0.2953 C.ar      1 <0>        -0.1697
     17 C15        -7.4255   -9.6189   -0.5092 C.ar      1 <0>        -0.0884
     18 C16        -8.7101  -10.1230   -0.5991 C.ar      1 <0>        -0.1322
     19 C17        -9.7976   -9.2794   -0.4756 C.ar      1 <0>        -0.0846
     20 C18        -9.6019   -7.9234   -0.2560 C.ar      1 <0>         0.1127
     21 N1        -10.7019   -7.0675   -0.1256 N.am      1 <0>        -0.6448
     22 C19       -11.8301   -7.5056    0.4674 C.2       1 <0>         0.5973
     23 O3        -11.9214   -8.6665    0.8178 O.2       1 <0>        -0.4888
     24 C20       -12.9537   -6.5772    0.6912 C.2       1 <0>         0.0144
     25 C21       -14.1423   -6.8820    1.2799 C.2       1 <0>        -0.1949
     26 C22       -14.9287   -5.7179    1.2958 C.2       1 <0>         0.0766
     27 N2        -14.2465   -4.7560    0.7427 N.2       1 <0>        -0.2895
     28 O4        -12.9865   -5.2726    0.3549 O.3       1 <0>        -0.0705
     29 H1          1.0390    1.8571   -0.0612 H         1 <0>         0.0538
     30 H2         -0.5223    1.8549   -0.9160 H         1 <0>         0.0534
     31 H3         -0.4818    1.8286    0.8634 H         1 <0>         0.0535
     32 H4          0.5267   -0.3912   -0.9731 H         1 <0>         0.0606
     33 H5          0.5673   -0.4175    0.8062 H         1 <0>         0.0607
     34 H6         -1.9042   -0.2254    0.8654 H         1 <0>         0.0614
     35 H7         -1.9448   -0.1991   -0.9139 H         1 <0>         0.0611
     36 H8         -0.8958   -2.4452   -0.9710 H         1 <0>         0.0628
     37 H9         -0.8552   -2.4715    0.8083 H         1 <0>         0.0630
     38 H10        -3.3267   -2.2794    0.8675 H         1 <0>         0.0649
     39 H11        -3.3673   -2.2531   -0.9118 H         1 <0>         0.0639
     40 H12        -2.3183   -4.4992   -0.9690 H         1 <0>         0.0763
     41 H13        -2.2777   -4.5255    0.8103 H         1 <0>         0.0777
     42 H14        -4.3238   -4.7430    2.0964 H         1 <0>         0.1344
     43 H15        -6.6350   -5.5875    2.1457 H         1 <0>         0.1366
     44 H16        -4.4188   -4.6895   -2.1671 H         1 <0>         0.1366
     45 H17        -7.3636   -4.8242   -2.6918 H         1 <0>         0.3949
     46 H18        -6.2175   -7.8781   -0.2256 H         1 <0>         0.1308
     47 H19        -6.5787  -10.2821   -0.6067 H         1 <0>         0.1295
     48 H20        -8.8638  -11.1788   -0.7667 H         1 <0>         0.1322
     49 H21       -10.7996   -9.6760   -0.5463 H         1 <0>         0.1486
     50 H22       -10.6521   -6.1591   -0.4621 H         1 <0>         0.4215
     51 H23       -14.4304   -7.8485    1.6664 H         1 <0>         0.1757
     52 H24       -15.9279   -5.6349    1.6973 H         1 <0>         0.2119
@<TRIPOS>BOND
     1    1    2 1
     2    1   29 1
     3    1   30 1
     4    1   31 1
     5    2    3 1
     6    2   32 1
     7    2   33 1
     8    3    4 1
     9    3   34 1
    10    3   35 1
    11    4    5 1
    12    4   36 1
    13    4   37 1
    14    5    6 1
    15    5   38 1
    16    5   39 1
    17    6    7 1
    18    6   40 1
    19    6   41 1
    20    7   12 ar
    21    7    8 ar
    22    8    9 ar
    23    8   42 1
    24    9   10 ar
    25    9   43 1
    26   10   11 ar
    27   10   14 1
    28   11   12 ar
    29   11   13 1
    30   12   44 1
    31   13   45 1
    32   14   15 1
    33   15   20 ar
    34   15   16 ar
    35   16   17 ar
    36   16   46 1
    37   17   18 ar
    38   17   47 1
    39   18   19 ar
    40   18   48 1
    41   19   20 ar
    42   19   49 1
    43   20   21 1
    44   21   22 am
    45   21   50 1
    46   22   23 2
    47   22   24 1
    48   24   28 1
    49   24   25 2
    50   25   26 1
    51   25   51 1
    52   26   27 2
    53   26   52 1
    54   27   28 1
@<TRIPOS>MOLECULE
CHEMBL239673
   44    46     0     0     0
SMALL
USER_CHARGES

@<TRIPOS>ATOM
      1 C1         -0.1339    1.4845    0.0311 C.3       1 <0>        -0.1230
      2 C2         -0.0833   -0.0216    0.0199 C.ar      1 <0>        -0.0601
      3 C3         -0.8175   -0.7286   -0.9161 C.ar      1 <0>        -0.1233
      4 C4         -0.7753   -2.1072   -0.9321 C.ar      1 <0>        -0.0992
      5 C5          0.0105   -2.7892   -0.0014 C.ar      1 <0>        -0.1362
      6 C6          0.7485   -2.0702    0.9398 C.ar      1 <0>        -0.0588
      7 C7          0.7015   -0.6912    0.9416 C.ar      1 <0>        -0.0910
      8 C8          1.5023    0.0871    1.9536 C.3       1 <0>        -0.1188
      9 C9          0.0601   -4.2668   -0.0125 C.2       1 <0>         0.5637
     10 O1          0.1898   -4.8783    1.0300 O.2       1 <0>        -0.5311
     11 N1         -0.0384   -4.9356   -1.1784 N.am      1 <0>        -0.6074
     12 C10        -0.0690   -4.2106   -2.4564 C.3       1 <0>         0.0733
     13 C11         1.0514   -4.7513   -3.3535 C.3       1 <0>         0.1062
     14 N2          0.9731   -6.2187   -3.3697 N.pl3     1 <0>        -0.6267
     15 C12         1.0036   -6.9438   -2.0917 C.3       1 <0>         0.1058
     16 C13        -0.1110   -6.4034   -1.1949 C.3       1 <0>         0.0963
     17 C14         0.8710   -6.9119   -4.5779 C.ar      1 <0>         0.2318
     18 C15         0.9705   -6.2281   -5.7833 C.ar      1 <0>        -0.1962
     19 C16         0.8697   -6.9159   -6.9765 C.ar      1 <0>        -0.0564
     20 C17         0.6694   -8.2841   -6.9732 C.ar      1 <0>        -0.1703
     21 C18         0.5697   -8.9688   -5.7748 C.ar      1 <0>         0.0167
     22 C19         0.6755   -8.2868   -4.5770 C.ar      1 <0>        -0.1941
     23 Cl1         0.3176  -10.6864   -5.7755 Cl        1 <0>        -0.0696
     24 H1          0.6472    1.8791   -0.6187 H         1 <0>         0.0760
     25 H2         -1.1077    1.8180   -0.3274 H         1 <0>         0.0703
     26 H3          0.0222    1.8457    1.0476 H         1 <0>         0.0728
     27 H4         -1.4253   -0.1997   -1.6353 H         1 <0>         0.1306
     28 H5         -1.3491   -2.6578   -1.6629 H         1 <0>         0.1350
     29 H6          1.3584   -2.5918    1.6625 H         1 <0>         0.1323
     30 H7          0.9020    0.2429    2.8499 H         1 <0>         0.0744
     31 H8          2.4024   -0.4709    2.2115 H         1 <0>         0.0693
     32 H9          1.7818    1.0523    1.5312 H         1 <0>         0.0720
     33 H10        -1.0328   -4.3649   -2.9416 H         1 <0>         0.0780
     34 H11         0.0871   -3.1468   -2.2773 H         1 <0>         0.1149
     35 H12         0.9268   -4.3671   -4.3659 H         1 <0>         0.0984
     36 H13         2.0185   -4.4409   -2.9582 H         1 <0>         0.0705
     37 H14         0.8476   -8.0076   -2.2708 H         1 <0>         0.0979
     38 H15         1.9674   -6.7895   -1.6065 H         1 <0>         0.0711
     39 H16         0.0172   -6.7874   -0.1828 H         1 <0>         0.1060
     40 H17        -1.0779   -6.7174   -1.5882 H         1 <0>         0.0749
     41 H18         1.1263   -5.1594   -5.7871 H         1 <0>         0.1286
     42 H19         0.9471   -6.3844   -7.9135 H         1 <0>         0.1320
     43 H20         0.5902   -8.8194   -7.9079 H         1 <0>         0.1302
     44 H21         0.6021   -8.8218   -3.6417 H         1 <0>         0.1333
@<TRIPOS>BOND
     1    1    2 1
     2    1   24 1
     3    1   25 1
     4    1   26 1
     5    2    7 ar
     6    2    3 ar
     7    3    4 ar
     8    3   27 1
     9    4    5 ar
    10    4   28 1
    11    5    6 ar
    12    5    9 1
    13    6    7 ar
    14    6   29 1
    15    7    8 1
    16    8   30 1
    17    8   31 1
    18    8   32 1
    19    9   10 2
    20    9   11 am
    21   11   16 1
    22   11   12 1
    23   12   13 1
    24   12   33 1
    25   12   34 1
    26   13   14 1
    27   13   35 1
    28   13   36 1
    29   14   15 1
    30   14   17 1
    31   15   16 1
    32   15   37 1
    33   15   38 1
    34   16   39 1
    35   16   40 1
    36   17   22 ar
    37   17   18 ar
    38   18   19 ar
    39   18   41 1
    40   19   20 ar
    41   19   42 1
    42   20   21 ar
    43   20   43 1
    44   21   22 ar
    45   21   23 1
    46   22   44 1
@<TRIPOS>MOLECULE
CHEMBL262343
   48    49     0     0     0
SMALL
USER_CHARGES

@<TRIPOS>ATOM
      1 C1         -0.2306    1.4324    0.0531 C.3       1 <0>        -0.1542
      2 C2         -0.1777   -0.0966    0.0375 C.3       1 <0>        -0.1255
      3 C3          0.5518   -0.5689   -1.2217 C.3       1 <0>        -0.1216
      4 C4          0.6047   -2.0979   -1.2372 C.3       1 <0>        -0.1205
      5 C5          1.3343   -2.5702   -2.4964 C.3       1 <0>        -0.1150
      6 C6          1.3871   -4.0992   -2.5119 C.3       1 <0>        -0.0751
      7 C7          2.1057   -4.5645   -3.7522 C.ar      1 <0>        -0.1044
      8 C8          1.3940   -4.8019   -4.9135 C.ar      1 <0>        -0.0855
      9 C9          2.0483   -5.2288   -6.0538 C.ar      1 <0>        -0.1782
     10 C10         3.4210   -5.4196   -6.0347 C.ar      1 <0>         0.0993
     11 C11         4.1374   -5.1805   -4.8656 C.ar      1 <0>         0.0776
     12 C12         3.4758   -4.7473   -3.7277 C.ar      1 <0>        -0.1079
     13 O1          5.4843   -5.3662   -4.8416 O.3       1 <0>        -0.4869
     14 O2          4.0662   -5.8398   -7.1553 O.3       1 <0>        -0.2458
     15 C13         3.3153   -6.1566   -8.2431 C.ar      1 <0>         0.0415
     16 C14         2.7596   -5.1493   -9.0195 C.ar      1 <0>        -0.1112
     17 C15         1.9969   -5.4702  -10.1243 C.ar      1 <0>        -0.1161
     18 C16         1.7859   -6.8021  -10.4594 C.ar      1 <0>         0.1668
     19 C17         2.3430   -7.8099   -9.6818 C.ar      1 <0>        -0.1423
     20 C18         3.1095   -7.4872   -8.5801 C.ar      1 <0>        -0.0963
     21 N1          1.0133   -7.1279  -11.5778 N.am      1 <0>        -0.6650
     22 C19         1.0553   -6.3481  -12.6763 C.2       1 <0>         0.4528
     23 O3          1.7015   -5.3209  -12.6668 O.2       1 <0>        -0.5234
     24 C20         0.3057   -6.7486  -13.9066 C.2       1 <0>         0.5000
     25 O4          0.3438   -6.0424  -14.9012 O.co2     1 <0>        -0.6364
     26 O5         -0.3441   -7.7815  -13.9161 O.co2     1 <0>        -0.6647
     27 H1          0.7839    1.8311    0.0498 H         1 <0>         0.0530
     28 H2         -0.7630    1.7866   -0.8297 H         1 <0>         0.0536
     29 H3         -0.7503    1.7689    0.9501 H         1 <0>         0.0523
     30 H4          0.3547   -0.4507    0.9203 H         1 <0>         0.0597
     31 H5         -1.1922   -0.4953    0.0408 H         1 <0>         0.0603
     32 H6          0.0195   -0.2148   -2.1044 H         1 <0>         0.0616
     33 H7          1.5663   -0.1702   -1.2249 H         1 <0>         0.0607
     34 H8          1.1371   -2.4520   -0.3544 H         1 <0>         0.0611
     35 H9         -0.4097   -2.4966   -1.2339 H         1 <0>         0.0618
     36 H10         0.8019   -2.2161   -3.3791 H         1 <0>         0.0641
     37 H11         2.3487   -2.1715   -2.4996 H         1 <0>         0.0626
     38 H12         1.9195   -4.4534   -1.6292 H         1 <0>         0.0708
     39 H13         0.3727   -4.4979   -2.5087 H         1 <0>         0.0722
     40 H14         0.3243   -4.6540   -4.9296 H         1 <0>         0.1270
     41 H15         1.4899   -5.4139   -6.9595 H         1 <0>         0.1371
     42 H16         4.0299   -4.5569   -2.8205 H         1 <0>         0.1332
     43 H17         5.9940   -4.5798   -5.0802 H         1 <0>         0.3857
     44 H18         2.9237   -4.1142   -8.7589 H         1 <0>         0.1286
     45 H19         1.5640   -4.6862  -10.7279 H         1 <0>         0.1467
     46 H20         2.1792   -8.8454   -9.9413 H         1 <0>         0.1347
     47 H21         3.5459   -8.2704   -7.9779 H         1 <0>         0.1315
     48 H22         0.4469   -7.9152  -11.5633 H         1 <0>         0.4193
@<TRIPOS>BOND
     1    1    2 1
     2    1   27 1
     3    1   28 1
     4    1   29 1
     5    2    3 1
     6    2   30 1
     7    2   31 1
     8    3    4 1
     9    3   32 1
    10    3   33 1
    11    4    5 1
    12    4   34 1
    13    4   35 1
    14    5    6 1
    15    5   36 1
    16    5   37 1
    17    6    7 1
    18    6   38 1
    19    6   39 1
    20    7   12 ar
    21    7    8 ar
    22    8    9 ar
    23    8   40 1
    24    9   10 ar
    25    9   41 1
    26   10   11 ar
    27   10   14 1
    28   11   12 ar
    29   11   13 1
    30   12   42 1
    31   13   43 1
    32   14   15 1
    33   15   20 ar
    34   15   16 ar
    35   16   17 ar
    36   16   44 1
    37   17   18 ar
    38   17   45 1
    39   18   19 ar
    40   18   21 1
    41   19   20 ar
    42   19   46 1
    43   20   47 1
    44   21   22 am
    45   21   48 1
    46   22   23 2
    47   22   24 1
    48   24   25 2
    49   24   26 1
@<TRIPOS>MOLECULE
CHEMBL407324
   48    49     0     0     0
SMALL
USER_CHARGES

@<TRIPOS>ATOM
      1 C1         -0.0315    1.4811    0.0421 C.3       1 <0>        -0.1543
      2 C2         -0.0127   -0.0487    0.0252 C.3       1 <0>        -0.1254
      3 C3          0.7056   -0.5361   -1.2347 C.3       1 <0>        -0.1218
      4 C4          0.7244   -2.0659   -1.2515 C.3       1 <0>        -0.1201
      5 C5          1.4427   -2.5532   -2.5114 C.3       1 <0>        -0.1151
      6 C6          1.4615   -4.0830   -2.5283 C.3       1 <0>        -0.0798
      7 C7          2.1690   -4.5631   -3.7692 C.ar      1 <0>        -0.0684
      8 C8          1.4517   -4.7836   -4.9305 C.ar      1 <0>        -0.1147
      9 C9          2.0960   -5.2235   -6.0716 C.ar      1 <0>        -0.1062
     10 C10         3.4642   -5.4445   -6.0532 C.ar      1 <0>         0.0636
     11 C11         4.1862   -5.2225   -4.8842 C.ar      1 <0>         0.1034
     12 C12         3.5347   -4.7765   -3.7455 C.ar      1 <0>        -0.1347
     13 O1          5.5287   -5.4379   -4.8610 O.3       1 <0>        -0.4876
     14 O2          4.0995   -5.8776   -7.1746 O.3       1 <0>        -0.2542
     15 C13         4.3915   -7.2015   -7.2715 C.ar      1 <0>         0.0847
     16 C14         3.9514   -8.0833   -6.2971 C.ar      1 <0>        -0.1661
     17 C15         4.2493   -9.4294   -6.3971 C.ar      1 <0>        -0.1197
     18 C16         4.9870   -9.9011   -7.4679 C.ar      1 <0>        -0.1268
     19 C17         5.4303   -9.0295   -8.4438 C.ar      1 <0>        -0.1095
     20 C18         5.1298   -7.6771   -8.3544 C.ar      1 <0>         0.1468
     21 N1          5.5714   -6.7939   -9.3439 N.am      1 <0>        -0.6537
     22 C19         6.6569   -7.0977  -10.0827 C.2       1 <0>         0.4520
     23 O3          7.3098   -8.0873   -9.8234 O.2       1 <0>        -0.5258
     24 C20         7.0566   -6.2156  -11.2220 C.2       1 <0>         0.5000
     25 O4          8.0395   -6.4907  -11.8910 O.co2     1 <0>        -0.6391
     26 O5          6.4000   -5.2205  -11.4828 O.co2     1 <0>        -0.6654
     27 H1          0.9916    1.8571    0.0388 H         1 <0>         0.0534
     28 H2         -0.5562    1.8478   -0.8402 H         1 <0>         0.0535
     29 H3         -0.5433    1.8283    0.9397 H         1 <0>         0.0523
     30 H4          0.5120   -0.4154    0.9075 H         1 <0>         0.0600
     31 H5         -1.0358   -0.4247    0.0286 H         1 <0>         0.0600
     32 H6          0.1809   -0.1694   -2.1169 H         1 <0>         0.0616
     33 H7          1.7287   -0.1601   -1.2380 H         1 <0>         0.0614
     34 H8          1.2491   -2.4325   -0.3693 H         1 <0>         0.0616
     35 H9         -0.2987   -2.4418   -1.2482 H         1 <0>         0.0619
     36 H10         0.9180   -2.1866   -3.3936 H         1 <0>         0.0651
     37 H11         2.4658   -2.1773   -2.5147 H         1 <0>         0.0640
     38 H12         1.9862   -4.4497   -1.6460 H         1 <0>         0.0733
     39 H13         0.4384   -4.4590   -2.5249 H         1 <0>         0.0747
     40 H14         0.3855   -4.6121   -4.9459 H         1 <0>         0.1309
     41 H15         1.5333   -5.3953   -6.9772 H         1 <0>         0.1368
     42 H16         4.0932   -4.5992   -2.8383 H         1 <0>         0.1328
     43 H17         6.0555   -4.6627   -5.0989 H         1 <0>         0.3954
     44 H18         3.3759   -7.7186   -5.4591 H         1 <0>         0.1220
     45 H19         3.9054  -10.1148   -5.6366 H         1 <0>         0.1197
     46 H20         5.2173  -10.9537   -7.5411 H         1 <0>         0.1237
     47 H21         6.0064   -9.4008   -9.2785 H         1 <0>         0.1535
     48 H22         5.0966   -5.9624   -9.4987 H         1 <0>         0.4201
@<TRIPOS>BOND
     1    1    2 1
     2    1   27 1
     3    1   28 1
     4    1   29 1
     5    2    3 1
     6    2   30 1
     7    2   31 1
     8    3    4 1
     9    3   32 1
    10    3   33 1
    11    4    5 1
    12    4   34 1
    13    4   35 1
    14    5    6 1
    15    5   36 1
    16    5   37 1
    17    6    7 1
    18    6   38 1
    19    6   39 1
    20    7   12 ar
    21    7    8 ar
    22    8    9 ar
    23    8   40 1
    24    9   10 ar
    25    9   41 1
    26   10   11 ar
    27   10   14 1
    28   11   12 ar
    29   11   13 1
    30   12   42 1
    31   13   43 1
    32   14   15 1
    33   15   20 ar
    34   15   16 ar
    35   16   17 ar
    36   16   44 1
    37   17   18 ar
    38   17   45 1
    39   18   19 ar
    40   18   46 1
    41   19   20 ar
    42   19   47 1
    43   20   21 1
    44   21   22 am
    45   21   48 1
    46   22   23 2
    47   22   24 1
    48   24   25 2
    49   24   26 1
@<TRIPOS>MOLECULE
CHEMBL386329
   64    68     0     0     0
SMALL
USER_CHARGES

@<TRIPOS>ATOM
      1 C1          0.6347    1.6185    0.3001 C.3       1 <0>         0.0547
      2 N1          0.4217    0.1805    0.1186 N.am      1 <0>        -0.6047
      3 C2          0.5802   -0.7324    1.2533 C.3       1 <0>         0.1511
      4 C3         -0.6961   -0.7651    2.0540 C.ar      1 <0>        -0.0888
      5 C4         -0.9312    0.1931    3.0383 C.ar      1 <0>        -0.0333
      6 C5          0.0117    1.2088    3.3067 C.ar      1 <0>        -0.1229
      7 C6         -0.2492    2.1267    4.2722 C.ar      1 <0>        -0.1074
      8 C7         -1.4307    2.0960    5.0138 C.ar      1 <0>        -0.1205
      9 C8         -2.3789    1.1471    4.8067 C.ar      1 <0>        -0.0992
     10 C9         -2.1732    0.1613    3.8175 C.ar      1 <0>        -0.0546
     11 C10        -3.1256   -0.8278    3.5789 C.ar      1 <0>        -0.0844
     12 C11        -2.8901   -1.7865    2.5952 C.ar      1 <0>        -0.0507
     13 C12        -1.6515   -1.7502    1.8109 C.ar      1 <0>        -0.0293
     14 C13        -1.4489   -2.7327    0.8177 C.ar      1 <0>        -0.1009
     15 C14        -2.4000   -3.6780    0.6069 C.ar      1 <0>        -0.1173
     16 C15        -3.5817   -3.7081    1.3483 C.ar      1 <0>        -0.1096
     17 C16        -3.8333   -2.8020    2.3272 C.ar      1 <0>        -0.1154
     18 C17         0.0798   -0.3026   -1.0923 C.2       1 <0>         0.5292
     19 O1         -0.1960   -1.4765   -1.2210 O.2       1 <0>        -0.5217
     20 C18         0.0404    0.6161   -2.2863 C.3       1 <0>        -0.1229
     21 C19        -1.2925    1.3982   -2.3389 C.3       1 <0>        -0.1434
     22 C20        -1.6185    1.4769   -3.8141 C.2       1 <0>         0.5220
     23 O2         -2.4234    2.2379   -4.3080 O.2       1 <0>        -0.5214
     24 N2         -0.8858    0.5811   -4.4978 N.am      1 <0>        -0.6177
     25 C21        -0.0155   -0.1904   -3.6027 C.3       1 <0>         0.1158
     26 C22        -0.9481    0.3983   -5.9501 C.3       1 <0>         0.1692
     27 C23        -0.4875    1.6999   -6.6375 C.3       1 <0>        -0.1264
     28 C24        -0.0642    1.3734   -8.0441 C.3       1 <0>        -0.1163
     29 C25        -1.2014    1.5752   -9.0637 C.3       1 <0>        -0.1175
     30 C26        -2.5612    1.0637   -8.5509 C.3       1 <0>        -0.1232
     31 C27        -2.4470   -0.2527   -7.8309 C.3       1 <0>        -0.1088
     32 C28        -2.3054    0.0255   -6.3204 C.3       1 <0>        -0.1422
     33 H1          1.6987    1.8411    0.2205 H         1 <0>         0.0645
     34 H2          0.0904    2.1664   -0.4691 H         1 <0>         0.0776
     35 H3          0.2734    1.9180    1.2839 H         1 <0>         0.0854
     36 H4          0.8041   -1.7338    0.8855 H         1 <0>         0.1019
     37 H5          1.3975   -0.3867    1.8863 H         1 <0>         0.0913
     38 H6          0.9347    1.2551    2.7479 H         1 <0>         0.1305
     39 H7          0.4770    2.9007    4.4718 H         1 <0>         0.1226
     40 H8         -1.5950    2.8468    5.7726 H         1 <0>         0.1225
     41 H9         -3.2846    1.1460    5.3951 H         1 <0>         0.1284
     42 H10        -4.0401   -0.8514    4.1530 H         1 <0>         0.1328
     43 H11        -0.5432   -2.7321    0.2293 H         1 <0>         0.1539
     44 H12        -2.2379   -4.4261   -0.1550 H         1 <0>         0.1204
     45 H13        -4.3102   -4.4792    1.1455 H         1 <0>         0.1206
     46 H14        -4.7559   -2.8484    2.8867 H         1 <0>         0.1271
     47 H15         0.8923    1.2959   -2.2812 H         1 <0>         0.1153
     48 H16        -2.0734    0.8578   -1.8039 H         1 <0>         0.1074
     49 H17        -1.1651    2.3975   -1.9225 H         1 <0>         0.1090
     50 H18         0.9822   -0.2809   -4.0322 H         1 <0>         0.0839
     51 H19        -0.4403   -1.1779   -3.4223 H         1 <0>         0.0943
     52 H20        -0.2710   -0.4076   -6.2333 H         1 <0>         0.0841
     53 H21        -1.3110    2.4137   -6.6593 H         1 <0>         0.0789
     54 H22         0.3545    2.1245   -6.0909 H         1 <0>         0.0645
     55 H23         0.7732    2.0151   -8.3183 H         1 <0>         0.0624
     56 H24         0.2631    0.3344   -8.0818 H         1 <0>         0.0611
     57 H25        -1.2877    2.6383   -9.2883 H         1 <0>         0.0593
     58 H26        -0.9492    1.0437   -9.9813 H         1 <0>         0.0595
     59 H27        -2.9819    1.8031   -7.8695 H         1 <0>         0.0642
     60 H28        -3.2357    0.9445   -9.3989 H         1 <0>         0.0594
     61 H29        -3.3425   -0.8475   -8.0112 H         1 <0>         0.0666
     62 H30        -1.5688   -0.7904   -8.1881 H         1 <0>         0.0661
     63 H31        -2.5884   -0.8707   -5.7683 H         1 <0>         0.0618
     64 H32        -2.9813    0.8353   -6.0456 H         1 <0>         0.0812
@<TRIPOS>BOND
     1    1    2 1
     2    1   33 1
     3    1   34 1
     4    1   35 1
     5    2    3 1
     6    2   18 am
     7    3    4 1
     8    3   36 1
     9    3   37 1
    10    4   13 ar
    11    4    5 ar
    12    5   10 ar
    13    5    6 ar
    14    6    7 ar
    15    6   38 1
    16    7    8 ar
    17    7   39 1
    18    8    9 ar
    19    8   40 1
    20    9   10 ar
    21    9   41 1
    22   10   11 ar
    23   11   12 ar
    24   11   42 1
    25   12   17 ar
    26   12   13 ar
    27   13   14 ar
    28   14   15 ar
    29   14   43 1
    30   15   16 ar
    31   15   44 1
    32   16   17 ar
    33   16   45 1
    34   17   46 1
    35   18   19 2
    36   18   20 1
    37   20   25 1
    38   20   21 1
    39   20   47 1
    40   21   22 1
    41   21   48 1
    42   21   49 1
    43   22   23 2
    44   22   24 am
    45   24   25 1
    46   24   26 1
    47   25   50 1
    48   25   51 1
    49   26   32 1
    50   26   27 1
    51   26   52 1
    52   27   28 1
    53   27   53 1
    54   27   54 1
    55   28   29 1
    56   28   55 1
    57   28   56 1
    58   29   30 1
    59   29   57 1
    60   29   58 1
    61   30   31 1
    62   30   59 1
    63   30   60 1
    64   31   32 1
    65   31   61 1
    66   31   62 1
    67   32   63 1
    68   32   64 1
@<TRIPOS>MOLECULE
CHEMBL386329__1
   64    68     0     0     0
SMALL
USER_CHARGES

@<TRIPOS>ATOM
      1 C1         -0.0573    1.4349    0.0016 C.3       1 <0>         0.0574
      2 N1         -0.0130   -0.0294   -0.0122 N.am      1 <0>        -0.6058
      3 C2          0.0178   -0.7732    1.2496 C.3       1 <0>         0.1509
      4 C3         -1.3866   -0.9353    1.7715 C.ar      1 <0>        -0.0866
      5 C4         -2.1166   -2.0850    1.4752 C.ar      1 <0>        -0.0300
      6 C5         -1.5631   -3.1167    0.6865 C.ar      1 <0>        -0.1007
      7 C6         -2.3015   -4.2234    0.4172 C.ar      1 <0>        -0.1178
      8 C7         -3.6021   -4.3732    0.9001 C.ar      1 <0>        -0.1092
      9 C8         -4.1940   -3.4198    1.6638 C.ar      1 <0>        -0.1161
     10 C9         -3.4833   -2.2427    1.9831 C.ar      1 <0>        -0.0502
     11 C10        -4.0608   -1.2436    2.7644 C.ar      1 <0>        -0.0855
     12 C11        -3.3312   -0.0936    3.0600 C.ar      1 <0>        -0.0541
     13 C12        -1.9618    0.0608    2.5584 C.ar      1 <0>        -0.0338
     14 C13        -1.2493    1.2355    2.8828 C.ar      1 <0>        -0.1225
     15 C14        -1.8395    2.1860    3.6516 C.ar      1 <0>        -0.1077
     16 C15        -3.1399    2.0358    4.1347 C.ar      1 <0>        -0.1201
     17 C16        -3.8851    0.9377    3.8487 C.ar      1 <0>        -0.0997
     18 C17        -0.0006   -0.6922   -1.1856 C.2       1 <0>         0.5244
     19 O1         -0.0520   -1.9038   -1.1983 O.2       1 <0>        -0.5191
     20 C18         0.0772    0.0723   -2.4820 C.3       1 <0>        -0.1244
     21 C19         1.4494    0.7691   -2.6321 C.3       1 <0>        -0.1469
     22 C20         2.2851   -0.2213   -3.4125 C.2       1 <0>         0.5178
     23 O2          3.4941   -0.1906   -3.5034 O.2       1 <0>        -0.5242
     24 N2          1.4927   -1.1407   -3.9903 N.am      1 <0>        -0.6122
     25 C21         0.0781   -0.8888   -3.6914 C.3       1 <0>         0.1163
     26 C22         1.9788   -2.2513   -4.8128 C.3       1 <0>         0.1709
     27 C23         2.8610   -3.1690   -3.9418 C.3       1 <0>        -0.1253
     28 C24         2.9336   -4.5225   -4.5952 C.3       1 <0>        -0.1153
     29 C25         4.1699   -4.6737   -5.5020 C.3       1 <0>        -0.1174
     30 C26         4.4484   -3.4160   -6.3471 C.3       1 <0>        -0.1226
     31 C27         3.1917   -2.8141   -6.9152 C.3       1 <0>        -0.1088
     32 C28         2.6995   -1.7110   -5.9560 C.3       1 <0>        -0.1406
     33 H1          0.9588    1.8292   -0.0017 H         1 <0>         0.0639
     34 H2         -0.5880    1.7907   -0.8815 H         1 <0>         0.0755
     35 H3         -0.5759    1.7743    0.8983 H         1 <0>         0.0860
     36 H4          0.4586   -1.7558    1.0814 H         1 <0>         0.1008
     37 H5          0.6156   -0.2267    1.9790 H         1 <0>         0.0903
     38 H6         -0.5589   -3.0259    0.2995 H         1 <0>         0.1545
     39 H7         -1.8713   -5.0084   -0.1869 H         1 <0>         0.1200
     40 H8         -4.1522   -5.2709    0.6597 H         1 <0>         0.1205
     41 H9         -5.2022   -3.5608    2.0245 H         1 <0>         0.1270
     42 H10        -5.0674   -1.3597    3.1381 H         1 <0>         0.1327
     43 H11        -0.2412    1.3769    2.5221 H         1 <0>         0.1306
     44 H12        -1.2880    3.0818    3.8959 H         1 <0>         0.1227
     45 H13        -3.5686    2.8185    4.7430 H         1 <0>         0.1225
     46 H14        -4.8896    0.8469    4.2349 H         1 <0>         0.1283
     47 H15        -0.7372    0.7929   -2.5571 H         1 <0>         0.1233
     48 H16         1.3451    1.7014   -3.1872 H         1 <0>         0.1159
     49 H17         1.8922    0.9543   -1.6534 H         1 <0>         0.1055
     50 H18        -0.4245   -1.8209   -3.4329 H         1 <0>         0.0974
     51 H19        -0.4104   -0.4204   -4.5458 H         1 <0>         0.0796
     52 H20         1.1240   -2.8238   -5.1728 H         1 <0>         0.0825
     53 H21         3.8626   -2.7464   -3.8627 H         1 <0>         0.0760
     54 H22         2.4214   -3.2647   -2.9490 H         1 <0>         0.0679
     55 H23         2.9696   -5.2872   -3.8193 H         1 <0>         0.0618
     56 H24         2.0359   -4.6733   -5.1948 H         1 <0>         0.0602
     57 H25         5.0403   -4.8780   -4.8784 H         1 <0>         0.0587
     58 H26         4.0135   -5.5196   -6.1714 H         1 <0>         0.0590
     59 H27         4.9436   -2.6733   -5.7216 H         1 <0>         0.0639
     60 H28         5.1139   -3.6830   -7.1680 H         1 <0>         0.0589
     61 H29         3.4026   -2.3815   -7.8932 H         1 <0>         0.0660
     62 H30         2.4269   -3.5849   -7.0100 H         1 <0>         0.0659
     63 H31         2.0401   -1.0366   -6.5023 H         1 <0>         0.0601
     64 H32         3.5596   -1.1463   -5.5963 H         1 <0>         0.0810
@<TRIPOS>BOND
     1    1    2 1
     2    1   33 1
     3    1   34 1
     4    1   35 1
     5    2    3 1
     6    2   18 am
     7    3    4 1
     8    3   36 1
     9    3   37 1
    10    4   13 ar
    11    4    5 ar
    12    5   10 ar
    13    5    6 ar
    14    6    7 ar
    15    6   38 1
    16    7    8 ar
    17    7   39 1
    18    8    9 ar
    19    8   40 1
    20    9   10 ar
    21    9   41 1
    22   10   11 ar
    23   11   12 ar
    24   11   42 1
    25   12   17 ar
    26   12   13 ar
    27   13   14 ar
    28   14   15 ar
    29   14   43 1
    30   15   16 ar
    31   15   44 1
    32   16   17 ar
    33   16   45 1
    34   17   46 1
    35   18   19 2
    36   18   20 1
    37   20   25 1
    38   20   21 1
    39   20   47 1
    40   21   22 1
    41   21   48 1
    42   21   49 1
    43   22   23 2
    44   22   24 am
    45   24   25 1
    46   24   26 1
    47   25   50 1
    48   25   51 1
    49   26   32 1
    50   26   27 1
    51   26   52 1
    52   27   28 1
    53   27   53 1
    54   27   54 1
    55   28   29 1
    56   28   55 1
    57   28   56 1
    58   29   30 1
    59   29   57 1
    60   29   58 1
    61   30   31 1
    62   30   59 1
    63   30   60 1
    64   31   32 1
    65   31   61 1
    66   31   62 1
    67   32   63 1
    68   32   64 1
@<TRIPOS>MOLECULE
CHEMBL262360
   49    50     0     0     0
SMALL
USER_CHARGES

@<TRIPOS>ATOM
      1 C1         -0.2275    1.4358    0.0510 C.3       1 <0>        -0.1545
      2 C2         -0.1753   -0.0933    0.0358 C.3       1 <0>        -0.1259
      3 C3          0.5541   -0.5662   -1.2232 C.3       1 <0>        -0.1212
      4 C4          0.6063   -2.0952   -1.2384 C.3       1 <0>        -0.1212
      5 C5          1.3357   -2.5682   -2.4974 C.3       1 <0>        -0.1143
      6 C6          1.3880   -4.0972   -2.5126 C.3       1 <0>        -0.0780
      7 C7          2.1064   -4.5630   -3.7527 C.ar      1 <0>        -0.0963
      8 C8          1.3946   -4.8005   -4.9140 C.ar      1 <0>        -0.0868
      9 C9          2.0487   -5.2283   -6.0541 C.ar      1 <0>        -0.1789
     10 C10         3.4213   -5.4197   -6.0348 C.ar      1 <0>         0.0929
     11 C11         4.1378   -5.1802   -4.8659 C.ar      1 <0>         0.0844
     12 C12         3.4764   -4.7465   -3.7282 C.ar      1 <0>        -0.1065
     13 O1          5.4846   -5.3669   -4.8417 O.3       1 <0>        -0.4862
     14 O2          4.0664   -5.8409   -7.1552 O.3       1 <0>        -0.2478
     15 C13         3.3152   -6.1581   -8.2430 C.ar      1 <0>         0.0675
     16 C14         2.7600   -5.1514   -9.0199 C.ar      1 <0>        -0.1145
     17 C15         1.9973   -5.4731  -10.1250 C.ar      1 <0>        -0.1067
     18 C16         1.7860   -6.8042  -10.4589 C.ar      1 <0>         0.1442
     19 C17         2.3419   -7.8112   -9.6811 C.ar      1 <0>        -0.1292
     20 C18         3.1088   -7.4884   -8.5792 C.ar      1 <0>        -0.0993
     21 N1          1.0119   -7.1311  -11.5799 N.am      1 <0>        -0.6751
     22 C19         1.0543   -6.3518  -12.6787 C.2       1 <0>         0.5110
     23 O3          1.7003   -5.3252  -12.6695 O.2       1 <0>        -0.5243
     24 C20         0.2993   -6.7559  -13.9187 C.3       1 <0>        -0.1701
     25 H1          0.7871    1.8340    0.0477 H         1 <0>         0.0534
     26 H2         -0.7597    1.7899   -0.8319 H         1 <0>         0.0533
     27 H3         -0.7472    1.7727    0.9480 H         1 <0>         0.0535
     28 H4          0.3569   -0.4474    0.9187 H         1 <0>         0.0606
     29 H5         -1.1899   -0.4915    0.0391 H         1 <0>         0.0604
     30 H6          0.0219   -0.2121   -2.1061 H         1 <0>         0.0609
     31 H7          1.5687   -0.1680   -1.2265 H         1 <0>         0.0610
     32 H8          1.1385   -2.4494   -0.3555 H         1 <0>         0.0623
     33 H9         -0.4083   -2.4935   -1.2351 H         1 <0>         0.0621
     34 H10         0.8035   -2.2140   -3.3803 H         1 <0>         0.0632
     35 H11         2.3504   -2.1699   -2.5008 H         1 <0>         0.0632
     36 H12         1.9202   -4.4513   -1.6297 H         1 <0>         0.0734
     37 H13         0.3733   -4.4955   -2.5093 H         1 <0>         0.0735
     38 H14         0.3250   -4.6517   -4.9303 H         1 <0>         0.1281
     39 H15         1.4903   -5.4138   -6.9597 H         1 <0>         0.1336
     40 H16         4.0305   -4.5560   -2.8209 H         1 <0>         0.1367
     41 H17         5.9950   -4.5811   -5.0809 H         1 <0>         0.3883
     42 H18         2.9241   -4.1161   -8.7599 H         1 <0>         0.1343
     43 H19         1.5649   -4.6894  -10.7295 H         1 <0>         0.1464
     44 H20         2.1779   -8.8467   -9.9403 H         1 <0>         0.1359
     45 H21         3.5445   -8.2715   -7.9765 H         1 <0>         0.1377
     46 H22         0.4454   -7.9184  -11.5652 H         1 <0>         0.4138
     47 H23        -0.2174   -7.6986  -13.7384 H         1 <0>         0.0796
     48 H24        -0.4291   -5.9843  -14.1682 H         1 <0>         0.1006
     49 H25         0.9981   -6.8771  -14.7463 H         1 <0>         0.1012
@<TRIPOS>BOND
     1    1    2 1
     2    1   25 1
     3    1   26 1
     4    1   27 1
     5    2    3 1
     6    2   28 1
     7    2   29 1
     8    3    4 1
     9    3   30 1
    10    3   31 1
    11    4    5 1
    12    4   32 1
    13    4   33 1
    14    5    6 1
    15    5   34 1
    16    5   35 1
    17    6    7 1
    18    6   36 1
    19    6   37 1
    20    7   12 ar
    21    7    8 ar
    22    8    9 ar
    23    8   38 1
    24    9   10 ar
    25    9   39 1
    26   10   11 ar
    27   10   14 1
    28   11   12 ar
    29   11   13 1
    30   12   40 1
    31   13   41 1
    32   14   15 1
    33   15   20 ar
    34   15   16 ar
    35   16   17 ar
    36   16   42 1
    37   17   18 ar
    38   17   43 1
    39   18   19 ar
    40   18   21 1
    41   19   20 ar
    42   19   44 1
    43   20   45 1
    44   21   22 am
    45   21   46 1
    46   22   23 2
    47   22   24 1
    48   24   47 1
    49   24   48 1
    50   24   49 1
@<TRIPOS>MOLECULE
CHEMBL263646
   48    49     0     0     0
SMALL
USER_CHARGES

@<TRIPOS>ATOM
      1 C1          0.1055    1.4608    0.0842 C.3       1 <0>        -0.1537
      2 C2          0.1300   -0.0689    0.0679 C.3       1 <0>        -0.1260
      3 C3          0.8313   -0.5542   -1.2023 C.3       1 <0>        -0.1208
      4 C4          0.8557   -2.0839   -1.2186 C.3       1 <0>        -0.1213
      5 C5          1.5571   -2.5693   -2.4889 C.3       1 <0>        -0.1136
      6 C6          1.5815   -4.0990   -2.5052 C.3       1 <0>        -0.0756
      7 C7          2.2723   -4.5771   -3.7563 C.ar      1 <0>        -0.1033
      8 C8          1.5386   -4.8011   -4.9066 C.ar      1 <0>        -0.0855
      9 C9          2.1674   -5.2396   -6.0568 C.ar      1 <0>        -0.1746
     10 C10         3.5364   -5.4557   -6.0587 C.ar      1 <0>         0.1020
     11 C11         4.2749   -5.2301   -4.9007 C.ar      1 <0>         0.0804
     12 C12         3.6390   -4.7852   -3.7529 C.ar      1 <0>        -0.1080
     13 O1          5.6183   -5.4411   -4.8973 O.3       1 <0>        -0.4843
     14 O2          4.1566   -5.8875   -7.1891 O.3       1 <0>        -0.2484
     15 C13         3.3836   -6.1900   -8.2649 C.ar      1 <0>         0.0957
     16 C14         2.8342   -5.1726   -9.0336 C.ar      1 <0>        -0.1645
     17 C15         2.0480   -5.4784  -10.1279 C.ar      1 <0>        -0.0877
     18 C16         1.8061   -6.7971  -10.4614 C.ar      1 <0>        -0.1521
     19 C17         2.3532   -7.8198   -9.6959 C.ar      1 <0>         0.1761
     20 C18         3.1479   -7.5143   -8.5989 C.ar      1 <0>        -0.1288
     21 N1          2.1084   -9.1530  -10.0326 N.am      1 <0>        -0.6648
     22 C19         1.9755  -10.0795   -9.0628 C.2       1 <0>         0.4511
     23 O3          2.1472   -9.7714   -7.9017 O.2       1 <0>        -0.5211
     24 C20         1.6165  -11.4874   -9.4177 C.2       1 <0>         0.5006
     25 O4          1.4962  -12.3262   -8.5395 O.co2     1 <0>        -0.6359
     26 O5          1.4439  -11.7972  -10.5853 O.co2     1 <0>        -0.6652
     27 H1          1.1270    1.8408    0.0654 H         1 <0>         0.0528
     28 H2         -0.4337    1.8249   -0.7903 H         1 <0>         0.0531
     29 H3         -0.3941    1.8066    0.9891 H         1 <0>         0.0522
     30 H4          0.6692   -0.4330    0.9424 H         1 <0>         0.0601
     31 H5         -0.8915   -0.4488    0.0867 H         1 <0>         0.0604
     32 H6          0.2921   -0.1901   -2.0768 H         1 <0>         0.0608
     33 H7          1.8528   -0.1743   -1.2212 H         1 <0>         0.0605
     34 H8          1.3950   -2.4481   -0.3442 H         1 <0>         0.0616
     35 H9         -0.1657   -2.4639   -1.1998 H         1 <0>         0.0620
     36 H10         1.0178   -2.2052   -3.3634 H         1 <0>         0.0632
     37 H11         2.5785   -2.1894   -2.5077 H         1 <0>         0.0623
     38 H12         2.1208   -4.4631   -1.6307 H         1 <0>         0.0715
     39 H13         0.5600   -4.4789   -2.4864 H         1 <0>         0.0727
     40 H14         0.4717   -4.6334   -4.9063 H         1 <0>         0.1269
     41 H15         1.5919   -5.4142   -6.9539 H         1 <0>         0.1359
     42 H16         4.2103   -4.6052   -2.8542 H         1 <0>         0.1340
     43 H17         6.1390   -4.6644   -5.1438 H         1 <0>         0.3837
     44 H18         3.0213   -4.1407   -8.7756 H         1 <0>         0.1255
     45 H19         1.6213   -4.6850  -10.7236 H         1 <0>         0.1305
     46 H20         1.1912   -7.0333  -11.3173 H         1 <0>         0.1314
     47 H21         3.5778   -8.3070   -8.0046 H         1 <0>         0.1480
     48 H22         2.0341   -9.4122  -10.9644 H         1 <0>         0.4200
@<TRIPOS>BOND
     1    1    2 1
     2    1   27 1
     3    1   28 1
     4    1   29 1
     5    2    3 1
     6    2   30 1
     7    2   31 1
     8    3    4 1
     9    3   32 1
    10    3   33 1
    11    4    5 1
    12    4   34 1
    13    4   35 1
    14    5    6 1
    15    5   36 1
    16    5   37 1
    17    6    7 1
    18    6   38 1
    19    6   39 1
    20    7   12 ar
    21    7    8 ar
    22    8    9 ar
    23    8   40 1
    24    9   10 ar
    25    9   41 1
    26   10   11 ar
    27   10   14 1
    28   11   12 ar
    29   11   13 1
    30   12   42 1
    31   13   43 1
    32   14   15 1
    33   15   20 ar
    34   15   16 ar
    35   16   17 ar
    36   16   44 1
    37   17   18 ar
    38   17   45 1
    39   18   19 ar
    40   18   46 1
    41   19   20 ar
    42   19   21 1
    43   20   47 1
    44   21   22 am
    45   21   48 1
    46   22   23 2
    47   22   24 1
    48   24   25 2
    49   24   26 1
@<TRIPOS>MOLECULE
CHEMBL441373
   53    56     0     0     0
SMALL
USER_CHARGES

@<TRIPOS>ATOM
      1 C1          1.0610    1.3824    3.0092 C.ar      1 <0>        -0.1173
      2 C2          1.9762    2.0943    2.2550 C.ar      1 <0>        -0.1171
      3 C3          2.9201    1.4275    1.5005 C.ar      1 <0>        -0.1088
      4 C4          2.9502    0.0344    1.4998 C.ar      1 <0>        -0.0473
      5 C5          2.0262   -0.6777    2.2616 C.ar      1 <0>        -0.1104
      6 C6          1.0863   -0.0006    3.0121 C.ar      1 <0>        -0.1176
      7 C7          3.9625   -0.6881    0.6901 C.ar      1 <0>        -0.0251
      8 C8          4.8899    0.0251   -0.0676 C.ar      1 <0>        -0.1225
      9 C9          5.8309   -0.6484   -0.8203 C.ar      1 <0>        -0.0959
     10 C10         5.8573   -2.0303   -0.8256 C.ar      1 <0>        -0.1181
     11 C11         4.9371   -2.7492   -0.0730 C.ar      1 <0>         0.1467
     12 C12         3.9919   -2.0798    0.6899 C.ar      1 <0>        -0.1353
     13 N1          4.9666   -4.1483   -0.0813 N.am      1 <0>        -0.6701
     14 C13         6.1422   -4.7968   -0.1994 C.2       1 <0>         0.5278
     15 O1          7.1818   -4.1721   -0.2022 O.2       1 <0>        -0.5080
     16 C14         6.1650   -6.2981   -0.3279 C.3       1 <0>        -0.1235
     17 C15         5.6958   -6.9728    0.9820 C.3       1 <0>        -0.1479
     18 C16         6.5726   -8.1997    1.1021 C.2       1 <0>         0.5212
     19 O2          6.3492   -9.1448    1.8286 O.2       1 <0>        -0.5196
     20 N2          7.6352   -8.0902    0.2861 N.am      1 <0>        -0.6155
     21 C17         7.6136   -6.8207   -0.4500 C.3       1 <0>         0.1165
     22 C18         8.6806   -9.1073    0.1492 C.3       1 <0>         0.1616
     23 C19         8.0566  -10.4183   -0.3333 C.3       1 <0>        -0.1335
     24 C20         9.1484  -11.4806   -0.4763 C.3       1 <0>        -0.1150
     25 C21         9.8223  -11.7049    0.8789 C.3       1 <0>        -0.1232
     26 C22        10.4463  -10.3940    1.3614 C.3       1 <0>        -0.1150
     27 C23         9.3545   -9.3317    1.5044 C.3       1 <0>        -0.1347
     28 H1          0.3268    1.9082    3.6014 H         1 <0>         0.1237
     29 H2          1.9520    3.1741    2.2563 H         1 <0>         0.1254
     30 H3          3.6338    1.9843    0.9115 H         1 <0>         0.1265
     31 H4          2.0449   -1.7575    2.2644 H         1 <0>         0.1240
     32 H5          0.3696   -0.5516    3.6029 H         1 <0>         0.1249
     33 H6          4.8720    1.1050   -0.0662 H         1 <0>         0.1279
     34 H7          6.5484   -0.0939   -1.4070 H         1 <0>         0.1301
     35 H8          6.5951   -2.5526   -1.4167 H         1 <0>         0.1356
     36 H9          3.2780   -2.6368    1.2786 H         1 <0>         0.1293
     37 H10         4.1411   -4.6513   -0.0020 H         1 <0>         0.4134
     38 H11         5.5600   -6.6244   -1.1738 H         1 <0>         0.1239
     39 H12         5.8522   -6.3075    1.8311 H         1 <0>         0.1091
     40 H13         4.6467   -7.2594    0.9089 H         1 <0>         0.1126
     41 H14         7.8675   -6.9872   -1.4968 H         1 <0>         0.0873
     42 H15         8.3093   -6.1121   -0.0005 H         1 <0>         0.0934
     43 H16         9.4229   -8.7703   -0.5743 H         1 <0>         0.0891
     44 H17         7.3143  -10.7553    0.3903 H         1 <0>         0.0791
     45 H18         7.5765  -10.2585   -1.2987 H         1 <0>         0.0627
     46 H19         8.7038  -12.4146   -0.8200 H         1 <0>         0.0664
     47 H20         9.8907  -11.1436   -1.1998 H         1 <0>         0.0627
     48 H21         9.0800  -12.0419    1.6025 H         1 <0>         0.0646
     49 H22        10.6001  -12.4617    0.7770 H         1 <0>         0.0640
     50 H23        10.9264  -10.5538    2.3268 H         1 <0>         0.0664
     51 H24        11.1886  -10.0570    0.6378 H         1 <0>         0.0628
     52 H25         9.7991   -8.3977    1.8481 H         1 <0>         0.0633
     53 H26         8.6122   -9.6686    2.2279 H         1 <0>         0.0793
@<TRIPOS>BOND
     1    1    6 ar
     2    1    2 ar
     3    1   28 1
     4    2    3 ar
     5    2   29 1
     6    3    4 ar
     7    3   30 1
     8    4    5 ar
     9    4    7 1
    10    5    6 ar
    11    5   31 1
    12    6   32 1
    13    7   12 ar
    14    7    8 ar
    15    8    9 ar
    16    8   33 1
    17    9   10 ar
    18    9   34 1
    19   10   11 ar
    20   10   35 1
    21   11   12 ar
    22   11   13 1
    23   12   36 1
    24   13   14 am
    25   13   37 1
    26   14   15 2
    27   14   16 1
    28   16   21 1
    29   16   17 1
    30   16   38 1
    31   17   18 1
    32   17   39 1
    33   17   40 1
    34   18   19 2
    35   18   20 am
    36   20   21 1
    37   20   22 1
    38   21   41 1
    39   21   42 1
    40   22   27 1
    41   22   23 1
    42   22   43 1
    43   23   24 1
    44   23   44 1
    45   23   45 1
    46   24   25 1
    47   24   46 1
    48   24   47 1
    49   25   26 1
    50   25   48 1
    51   25   49 1
    52   26   27 1
    53   26   50 1
    54   26   51 1
    55   27   52 1
    56   27   53 1
@<TRIPOS>MOLECULE
CHEMBL441373__1
   53    56     0     0     0
SMALL
USER_CHARGES

@<TRIPOS>ATOM
      1 C1          1.0610    1.3825    3.0089 C.ar      1 <0>        -0.1176
      2 C2          1.9762    2.0944    2.2547 C.ar      1 <0>        -0.1170
      3 C3          2.9201    1.4275    1.5002 C.ar      1 <0>        -0.1089
      4 C4          2.9502    0.0345    1.4996 C.ar      1 <0>        -0.0464
      5 C5          2.0262   -0.6776    2.2615 C.ar      1 <0>        -0.1106
      6 C6          1.0864   -0.0005    3.0119 C.ar      1 <0>        -0.1177
      7 C7          3.9624   -0.6881    0.6899 C.ar      1 <0>        -0.0258
      8 C8          4.8899    0.0251   -0.0679 C.ar      1 <0>        -0.1224
      9 C9          5.8309   -0.6484   -0.8205 C.ar      1 <0>        -0.0957
     10 C10         5.8573   -2.0303   -0.8257 C.ar      1 <0>        -0.1172
     11 C11         4.9371   -2.7492   -0.0731 C.ar      1 <0>         0.1479
     12 C12         3.9919   -2.0798    0.6898 C.ar      1 <0>        -0.1354
     13 N1          4.9666   -4.1483   -0.0813 N.am      1 <0>        -0.6715
     14 C13         6.1422   -4.7968   -0.1994 C.2       1 <0>         0.5215
     15 O1          7.1818   -4.1721   -0.2022 O.2       1 <0>        -0.5048
     16 C14         6.1650   -6.2981   -0.3279 C.3       1 <0>        -0.1253
     17 C15         5.5531   -6.7476   -1.6749 C.3       1 <0>        -0.1477
     18 C16         6.7426   -6.8631   -2.6025 C.2       1 <0>         0.5169
     19 O2          6.6773   -6.9172   -3.8124 O.2       1 <0>        -0.5214
     20 N2          7.8823   -6.8964   -1.8908 N.am      1 <0>        -0.6105
     21 C17         7.6136   -6.8207   -0.4500 C.3       1 <0>         0.1157
     22 C18         9.2209   -6.9957   -2.4778 C.3       1 <0>         0.1639
     23 C19         9.4661   -5.7955   -3.3945 C.3       1 <0>        -0.1334
     24 C20        10.8640   -5.8992   -4.0076 C.3       1 <0>        -0.1146
     25 C21        10.9701   -7.1913   -4.8199 C.3       1 <0>        -0.1230
     26 C22        10.7249   -8.3916   -3.9033 C.3       1 <0>        -0.1146
     27 C23         9.3269   -8.2879   -3.2902 C.3       1 <0>        -0.1336
     28 H1          0.3268    1.9084    3.6011 H         1 <0>         0.1236
     29 H2          1.9520    3.1742    2.2560 H         1 <0>         0.1254
     30 H3          3.6338    1.9844    0.9112 H         1 <0>         0.1265
     31 H4          2.0449   -1.7574    2.2643 H         1 <0>         0.1238
     32 H5          0.3697   -0.5514    3.6028 H         1 <0>         0.1247
     33 H6          4.8720    1.1050   -0.0665 H         1 <0>         0.1278
     34 H7          6.5483   -0.0940   -1.4072 H         1 <0>         0.1295
     35 H8          6.5950   -2.5527   -1.4168 H         1 <0>         0.1338
     36 H9          3.2780   -2.6367    1.2786 H         1 <0>         0.1292
     37 H10         4.1411   -4.6513   -0.0019 H         1 <0>         0.4127
     38 H11         5.6504   -6.7672    0.5108 H         1 <0>         0.1300
     39 H12         5.0589   -7.7130   -1.5663 H         1 <0>         0.1199
     40 H13         4.8525   -5.9988   -2.0444 H         1 <0>         0.1052
     41 H14         8.3062   -6.1272    0.0270 H         1 <0>         0.0979
     42 H15         7.6974   -7.8091    0.0019 H         1 <0>         0.0842
     43 H16         9.9666   -7.0041   -1.6829 H         1 <0>         0.0879
     44 H17         8.7204   -5.7871   -4.1894 H         1 <0>         0.0768
     45 H18         9.3905   -4.8749   -2.8157 H         1 <0>         0.0650
     46 H19        11.0387   -5.0441   -4.6606 H         1 <0>         0.0656
     47 H20        11.6097   -5.9076   -3.2126 H         1 <0>         0.0624
     48 H21        10.2244   -7.1830   -5.6149 H         1 <0>         0.0641
     49 H22        11.9660   -7.2652   -5.2567 H         1 <0>         0.0635
     50 H23        10.8004   -9.3122   -4.4821 H         1 <0>         0.0659
     51 H24        11.4706   -8.4000   -3.1084 H         1 <0>         0.0624
     52 H25         9.1522   -9.1430   -2.6372 H         1 <0>         0.0623
     53 H26         8.5812   -8.2795   -4.0852 H         1 <0>         0.0789
@<TRIPOS>BOND
     1    1    6 ar
     2    1    2 ar
     3    1   28 1
     4    2    3 ar
     5    2   29 1
     6    3    4 ar
     7    3   30 1
     8    4    5 ar
     9    4    7 1
    10    5    6 ar
    11    5   31 1
    12    6   32 1
    13    7   12 ar
    14    7    8 ar
    15    8    9 ar
    16    8   33 1
    17    9   10 ar
    18    9   34 1
    19   10   11 ar
    20   10   35 1
    21   11   12 ar
    22   11   13 1
    23   12   36 1
    24   13   14 am
    25   13   37 1
    26   14   15 2
    27   14   16 1
    28   16   21 1
    29   16   17 1
    30   16   38 1
    31   17   18 1
    32   17   39 1
    33   17   40 1
    34   18   19 2
    35   18   20 am
    36   20   21 1
    37   20   22 1
    38   21   41 1
    39   21   42 1
    40   22   27 1
    41   22   23 1
    42   22   43 1
    43   23   24 1
    44   23   44 1
    45   23   45 1
    46   24   25 1
    47   24   46 1
    48   24   47 1
    49   25   26 1
    50   25   48 1
    51   25   49 1
    52   26   27 1
    53   26   50 1
    54   26   51 1
    55   27   52 1
    56   27   53 1
@<TRIPOS>MOLECULE
CHEMBL385214
   43    45     0     0     0
SMALL
USER_CHARGES

@<TRIPOS>ATOM
      1 C1          1.0852   -0.4605    0.7500 C.ar      1 <0>        -0.0923
      2 C2          2.2739    0.2431    0.7377 C.ar      1 <0>        -0.1057
      3 C3          2.3811    1.4100   -0.0074 C.ar      1 <0>         0.1507
      4 C4          1.2921    1.8663   -0.7384 C.ar      1 <0>        -0.1173
      5 C5          0.1056    1.1582   -0.7222 C.ar      1 <0>        -0.0716
      6 C6          0.0024   -0.0044    0.0215 C.ar      1 <0>        -0.1037
      7 Br1        -1.3783    1.7781   -1.7171 Br        1 <0>        -0.0423
      8 N1          3.5839    2.1248   -0.0212 N.am      1 <0>        -0.6693
      9 C7          4.7583    1.4695    0.0657 C.2       1 <0>         0.5291
     10 O1          4.7780    0.2568    0.0596 O.2       1 <0>        -0.5070
     11 C8          6.0471    2.2435    0.1706 C.3       1 <0>        -0.1232
     12 C9          6.3419    3.0078   -1.1408 C.3       1 <0>        -0.1483
     13 C10         7.8438    2.9136   -1.2956 C.2       1 <0>         0.5212
     14 O2          8.5112    3.6083   -2.0324 O.2       1 <0>        -0.5187
     15 N2          8.3312    1.9481   -0.4972 N.am      1 <0>        -0.6157
     16 C11         7.2592    1.2898    0.2586 C.3       1 <0>         0.1165
     17 C12         9.7500    1.5981   -0.3948 C.3       1 <0>         0.1617
     18 C13        10.5433    2.8178    0.0785 C.3       1 <0>        -0.1336
     19 C14        12.0252    2.4523    0.1855 C.3       1 <0>        -0.1150
     20 C15        12.5412    2.0086   -1.1848 C.3       1 <0>        -0.1233
     21 C16        11.7479    0.7890   -1.6581 C.3       1 <0>        -0.1150
     22 C17        10.2661    1.1545   -1.7651 C.3       1 <0>        -0.1348
     23 H1          1.0030   -1.3704    1.3259 H         1 <0>         0.1379
     24 H2          3.1191   -0.1138    1.3074 H         1 <0>         0.1415
     25 H3          1.3723    2.7737   -1.3186 H         1 <0>         0.1370
     26 H4         -0.9257   -0.5565    0.0326 H         1 <0>         0.1359
     27 H5          3.5724    3.0921   -0.0934 H         1 <0>         0.4156
     28 H6          6.0232    2.9235    1.0222 H         1 <0>         0.1250
     29 H7          5.8410    2.5291   -1.9822 H         1 <0>         0.1094
     30 H8          6.0320    4.0491   -1.0534 H         1 <0>         0.1133
     31 H9          7.5584    1.1550    1.2981 H         1 <0>         0.0877
     32 H10         7.0157    0.3277   -0.1923 H         1 <0>         0.0934
     33 H11         9.8729    0.7848    0.3204 H         1 <0>         0.0892
     34 H12        10.4204    3.6311   -0.6367 H         1 <0>         0.0792
     35 H13        10.1757    3.1338    1.0548 H         1 <0>         0.0628
     36 H14        12.5903    3.3212    0.5227 H         1 <0>         0.0665
     37 H15        12.1480    1.6390    0.9007 H         1 <0>         0.0627
     38 H16        12.4183    2.8219   -1.9001 H         1 <0>         0.0646
     39 H17        13.5969    1.7482   -1.1086 H         1 <0>         0.0641
     40 H18        12.1156    0.4729   -2.6344 H         1 <0>         0.0665
     41 H19        11.8708   -0.0243   -0.9429 H         1 <0>         0.0628
     42 H20         9.7010    0.2856   -2.1023 H         1 <0>         0.0633
     43 H21        10.1432    1.9678   -2.4804 H         1 <0>         0.0793
@<TRIPOS>BOND
     1    1    6 ar
     2    1    2 ar
     3    1   23 1
     4    2    3 ar
     5    2   24 1
     6    3    4 ar
     7    3    8 1
     8    4    5 ar
     9    4   25 1
    10    5    6 ar
    11    5    7 1
    12    6   26 1
    13    8    9 am
    14    8   27 1
    15    9   10 2
    16    9   11 1
    17   11   16 1
    18   11   12 1
    19   11   28 1
    20   12   13 1
    21   12   29 1
    22   12   30 1
    23   13   14 2
    24   13   15 am
    25   15   16 1
    26   15   17 1
    27   16   31 1
    28   16   32 1
    29   17   22 1
    30   17   18 1
    31   17   33 1
    32   18   19 1
    33   18   34 1
    34   18   35 1
    35   19   20 1
    36   19   36 1
    37   19   37 1
    38   20   21 1
    39   20   38 1
    40   20   39 1
    41   21   22 1
    42   21   40 1
    43   21   41 1
    44   22   42 1
    45   22   43 1
@<TRIPOS>MOLECULE
CHEMBL385214__1
   43    45     0     0     0
SMALL
USER_CHARGES

@<TRIPOS>ATOM
      1 C1          1.0852   -0.4604    0.7502 C.ar      1 <0>        -0.0920
      2 C2          2.2739    0.2432    0.7378 C.ar      1 <0>        -0.1051
      3 C3          2.3811    1.4100   -0.0073 C.ar      1 <0>         0.1519
      4 C4          1.2920    1.8663   -0.7383 C.ar      1 <0>        -0.1175
      5 C5          0.1055    1.1582   -0.7220 C.ar      1 <0>        -0.0716
      6 C6          0.0024   -0.0043    0.0218 C.ar      1 <0>        -0.1038
      7 Br1        -1.3784    1.7781   -1.7169 Br        1 <0>        -0.0427
      8 N1          3.5839    2.1248   -0.0212 N.am      1 <0>        -0.6707
      9 C7          4.7583    1.4695    0.0657 C.2       1 <0>         0.5226
     10 O1          4.7780    0.2568    0.0596 O.2       1 <0>        -0.5038
     11 C8          6.0471    2.2435    0.1706 C.3       1 <0>        -0.1250
     12 C9          6.1354    2.9909    1.5214 C.3       1 <0>        -0.1479
     13 C10         6.8832    2.0361    2.4256 C.2       1 <0>         0.5166
     14 O2          6.9220    2.1116    3.6354 O.2       1 <0>        -0.5208
     15 N2          7.4981    1.0916    1.6931 N.am      1 <0>        -0.6108
     16 C11         7.2592    1.2898    0.2586 C.3       1 <0>         0.1157
     17 C12         8.3034    0.0041    2.2544 C.3       1 <0>         0.1639
     18 C13         7.4353   -0.8454    3.1849 C.3       1 <0>        -0.1333
     19 C14         8.2763   -1.9812    3.7712 C.3       1 <0>        -0.1147
     20 C15         9.4471   -1.3933    4.5615 C.3       1 <0>        -0.1230
     21 C16        10.3151   -0.5439    3.6310 C.3       1 <0>        -0.1147
     22 C17         9.4742    0.5919    3.0447 C.3       1 <0>        -0.1337
     23 H1          1.0030   -1.3704    1.3262 H         1 <0>         0.1373
     24 H2          3.1192   -0.1138    1.3075 H         1 <0>         0.1397
     25 H3          1.3722    2.7736   -1.3186 H         1 <0>         0.1369
     26 H4         -0.9257   -0.5565    0.0328 H         1 <0>         0.1358
     27 H5          3.5724    3.0921   -0.0935 H         1 <0>         0.4149
     28 H6          6.1542    2.9342   -0.6658 H         1 <0>         0.1311
     29 H7          6.6908    3.9218    1.4067 H         1 <0>         0.1206
     30 H8          5.1379    3.1868    1.9149 H         1 <0>         0.1053
     31 H9          7.0262    0.3385   -0.2199 H         1 <0>         0.0981
     32 H10         8.1319    1.7447   -0.2098 H         1 <0>         0.0849
     33 H11         8.6868   -0.6187    1.4462 H         1 <0>         0.0881
     34 H12         7.0519   -0.2227    3.9931 H         1 <0>         0.0768
     35 H13         6.6012   -1.2642    2.6219 H         1 <0>         0.0648
     36 H14         7.6579   -2.5863    4.4340 H         1 <0>         0.0657
     37 H15         8.6597   -2.6039    2.9629 H         1 <0>         0.0625
     38 H16         9.0637   -0.7706    5.3697 H         1 <0>         0.0641
     39 H17        10.0462   -2.2025    4.9791 H         1 <0>         0.0637
     40 H18        11.1492   -0.1251    4.1940 H         1 <0>         0.0660
     41 H19        10.6986   -1.1666    2.8227 H         1 <0>         0.0625
     42 H20        10.0926    1.1971    2.3818 H         1 <0>         0.0624
     43 H21         9.0907    1.2146    3.8530 H         1 <0>         0.0789
@<TRIPOS>BOND
     1    1    6 ar
     2    1    2 ar
     3    1   23 1
     4    2    3 ar
     5    2   24 1
     6    3    4 ar
     7    3    8 1
     8    4    5 ar
     9    4   25 1
    10    5    6 ar
    11    5    7 1
    12    6   26 1
    13    8    9 am
    14    8   27 1
    15    9   10 2
    16    9   11 1
    17   11   16 1
    18   11   12 1
    19   11   28 1
    20   12   13 1
    21   12   29 1
    22   12   30 1
    23   13   14 2
    24   13   15 am
    25   15   16 1
    26   15   17 1
    27   16   31 1
    28   16   32 1
    29   17   22 1
    30   17   18 1
    31   17   33 1
    32   18   19 1
    33   18   34 1
    34   18   35 1
    35   19   20 1
    36   19   36 1
    37   19   37 1
    38   20   21 1
    39   20   38 1
    40   20   39 1
    41   21   22 1
    42   21   40 1
    43   21   41 1
    44   22   42 1
    45   22   43 1
@<TRIPOS>MOLECULE
CHEMBL425259
   46    48     0     0     0
SMALL
USER_CHARGES

@<TRIPOS>ATOM
      1 C1         -1.2646    1.1833    0.1814 C.3       1 <0>        -0.1178
      2 C2         -0.5840   -0.1578    0.0844 C.ar      1 <0>        -0.1043
      3 C3         -0.5693   -0.8402   -1.1166 C.ar      1 <0>        -0.0901
      4 C4          0.0546   -2.0704   -1.2070 C.ar      1 <0>        -0.1182
      5 C5          0.6669   -2.6223   -0.0950 C.ar      1 <0>        -0.0228
      6 C6          0.6553   -1.9442    1.1092 C.ar      1 <0>        -0.1095
      7 C7          0.0336   -0.7058    1.2008 C.ar      1 <0>         0.1519
      8 N1          0.0251   -0.0140    2.4170 N.am      1 <0>        -0.6665
      9 C8         -0.0564   -0.6934    3.5782 C.2       1 <0>         0.5271
     10 O1         -0.0401   -1.9061    3.5737 O.2       1 <0>        -0.5058
     11 C9         -0.1678    0.0539    4.8821 C.3       1 <0>        -0.1228
     12 C10         1.1372    0.8231    5.1923 C.3       1 <0>        -0.1481
     13 C11         1.2927    0.7003    6.6921 C.2       1 <0>         0.5213
     14 O2          2.0237    1.3877    7.3733 O.2       1 <0>        -0.5190
     15 N2          0.5025   -0.2813    7.1599 N.am      1 <0>        -0.6153
     16 C12        -0.2478   -0.9245    6.0749 C.3       1 <0>         0.1164
     17 C13         0.4030   -0.6604    8.5715 C.3       1 <0>         0.1615
     18 C14        -0.0805    0.5392    9.3889 C.3       1 <0>        -0.1334
     19 C15        -0.1844    0.1433   10.8631 C.3       1 <0>        -0.1150
     20 C16         1.1896   -0.2990   11.3705 C.3       1 <0>        -0.1233
     21 C17         1.6731   -1.4986   10.5531 C.3       1 <0>        -0.1151
     22 C18         1.7770   -1.1027    9.0789 C.3       1 <0>        -0.1347
     23 Cl1         1.4493   -4.1675   -0.2130 Cl        1 <0>        -0.0628
     24 H1         -0.5494    1.9715   -0.0535 H         1 <0>         0.0758
     25 H2         -2.0933    1.2221   -0.5256 H         1 <0>         0.0758
     26 H3         -1.6434    1.3261    1.1934 H         1 <0>         0.0659
     27 H4         -1.0462   -0.4121   -1.9860 H         1 <0>         0.1378
     28 H5          0.0641   -2.6022   -2.1470 H         1 <0>         0.1361
     29 H6          1.1324   -2.3752    1.9770 H         1 <0>         0.1508
     30 H7          0.0778    0.9545    2.4244 H         1 <0>         0.4154
     31 H8         -1.0250    0.7271    4.8716 H         1 <0>         0.1241
     32 H9          1.9826    0.3615    4.6821 H         1 <0>         0.1095
     33 H10         1.0411    1.8697    4.9032 H         1 <0>         0.1130
     34 H11        -1.2861   -1.0739    6.3712 H         1 <0>         0.0876
     35 H12         0.2111   -1.8777    5.8124 H         1 <0>         0.0937
     36 H13        -0.3054   -1.4819    8.6781 H         1 <0>         0.0892
     37 H14         0.6279    1.3607    9.2824 H         1 <0>         0.0792
     38 H15        -1.0594    0.8543    9.0275 H         1 <0>         0.0627
     39 H16        -0.5289    0.9979   11.4454 H         1 <0>         0.0664
     40 H17        -0.8928   -0.6782   10.9697 H         1 <0>         0.0627
     41 H18         1.8980    0.5225   11.2640 H         1 <0>         0.0646
     42 H19         1.1155   -0.5811   12.4208 H         1 <0>         0.0641
     43 H20         2.6519   -1.8138   10.9146 H         1 <0>         0.0665
     44 H21         0.9647   -2.3202   10.6597 H         1 <0>         0.0628
     45 H22         2.1215   -1.9573    8.4966 H         1 <0>         0.0634
     46 H23         2.4854   -0.2812    8.9724 H         1 <0>         0.0794
@<TRIPOS>BOND
     1    1    2 1
     2    1   24 1
     3    1   25 1
     4    1   26 1
     5    2    7 ar
     6    2    3 ar
     7    3    4 ar
     8    3   27 1
     9    4    5 ar
    10    4   28 1
    11    5    6 ar
    12    5   23 1
    13    6    7 ar
    14    6   29 1
    15    7    8 1
    16    8    9 am
    17    8   30 1
    18    9   10 2
    19    9   11 1
    20   11   16 1
    21   11   12 1
    22   11   31 1
    23   12   13 1
    24   12   32 1
    25   12   33 1
    26   13   14 2
    27   13   15 am
    28   15   16 1
    29   15   17 1
    30   16   34 1
    31   16   35 1
    32   17   22 1
    33   17   18 1
    34   17   36 1
    35   18   19 1
    36   18   37 1
    37   18   38 1
    38   19   20 1
    39   19   39 1
    40   19   40 1
    41   20   21 1
    42   20   41 1
    43   20   42 1
    44   21   22 1
    45   21   43 1
    46   21   44 1
    47   22   45 1
    48   22   46 1
@<TRIPOS>MOLECULE
CHEMBL425259__1
   46    48     0     0     0
SMALL
USER_CHARGES

@<TRIPOS>ATOM
      1 C1         -1.2644    1.1834    0.1814 C.3       1 <0>        -0.1176
      2 C2         -0.5840   -0.1578    0.0844 C.ar      1 <0>        -0.1048
      3 C3         -0.5693   -0.8401   -1.1166 C.ar      1 <0>        -0.0900
      4 C4          0.0545   -2.0704   -1.2070 C.ar      1 <0>        -0.1188
      5 C5          0.6666   -2.6224   -0.0950 C.ar      1 <0>        -0.0229
      6 C6          0.6551   -1.9443    1.1092 C.ar      1 <0>        -0.1093
      7 C7          0.0336   -0.7058    1.2008 C.ar      1 <0>         0.1528
      8 N1          0.0251   -0.0140    2.4170 N.am      1 <0>        -0.6679
      9 C8         -0.0564   -0.6934    3.5782 C.2       1 <0>         0.5208
     10 O1         -0.0401   -1.9061    3.5737 O.2       1 <0>        -0.5026
     11 C9         -0.1678    0.0539    4.8821 C.3       1 <0>        -0.1250
     12 C10        -1.5247    0.7881    4.9850 C.3       1 <0>        -0.1475
     13 C11        -2.4209   -0.1890    5.7135 C.2       1 <0>         0.5169
     14 O2         -3.6314   -0.1244    5.7536 O.2       1 <0>        -0.5213
     15 N2         -1.6805   -1.1394    6.3096 N.am      1 <0>        -0.6104
     16 C12        -0.2478   -0.9245    6.0749 C.3       1 <0>         0.1157
     17 C13        -2.2327   -2.2474    7.0929 C.3       1 <0>         0.1641
     18 C14        -3.1561   -3.0872    6.2080 C.3       1 <0>        -0.1335
     19 C15        -3.7328   -4.2444    7.0260 C.3       1 <0>        -0.1146
     20 C16        -4.5280   -3.6866    8.2082 C.3       1 <0>        -0.1229
     21 C17        -3.6047   -2.8469    9.0931 C.3       1 <0>        -0.1145
     22 C18        -3.0280   -1.6897    8.2751 C.3       1 <0>        -0.1334
     23 Cl1         1.4489   -4.1677   -0.2129 Cl        1 <0>        -0.0634
     24 H1         -0.5491    1.9716   -0.0535 H         1 <0>         0.0760
     25 H2         -2.0931    1.2224   -0.5256 H         1 <0>         0.0760
     26 H3         -1.6432    1.3263    1.1934 H         1 <0>         0.0653
     27 H4         -1.0461   -0.4120   -1.9860 H         1 <0>         0.1377
     28 H5          0.0639   -2.6022   -2.1470 H         1 <0>         0.1360
     29 H6          1.1322   -2.3753    1.9770 H         1 <0>         0.1506
     30 H7          0.0778    0.9545    2.4244 H         1 <0>         0.4146
     31 H8          0.6628    0.7493    5.0031 H         1 <0>         0.1313
     32 H9         -1.4179    1.7086    5.5589 H         1 <0>         0.1204
     33 H10        -1.9199    1.0005    3.9916 H         1 <0>         0.1043
     34 H11         0.2387   -1.8669    5.8231 H         1 <0>         0.0981
     35 H12         0.2168   -0.4832    6.9566 H         1 <0>         0.0849
     36 H13        -1.4193   -2.8709    7.4640 H         1 <0>         0.0880
     37 H14        -3.9695   -2.4637    5.8369 H         1 <0>         0.0765
     38 H15        -2.5895   -3.4845    5.3658 H         1 <0>         0.0651
     39 H16        -4.3906   -4.8426    6.3955 H         1 <0>         0.0656
     40 H17        -2.9194   -4.8678    7.3971 H         1 <0>         0.0625
     41 H18        -5.3414   -3.0632    7.8371 H         1 <0>         0.0640
     42 H19        -4.9389   -4.5110    8.7910 H         1 <0>         0.0636
     43 H20        -4.1712   -2.4495    9.9353 H         1 <0>         0.0660
     44 H21        -2.7913   -3.4703    9.4642 H         1 <0>         0.0625
     45 H22        -2.3702   -1.0914    8.9055 H         1 <0>         0.0623
     46 H23        -3.8414   -1.0662    7.9040 H         1 <0>         0.0788
@<TRIPOS>BOND
     1    1    2 1
     2    1   24 1
     3    1   25 1
     4    1   26 1
     5    2    7 ar
     6    2    3 ar
     7    3    4 ar
     8    3   27 1
     9    4    5 ar
    10    4   28 1
    11    5    6 ar
    12    5   23 1
    13    6    7 ar
    14    6   29 1
    15    7    8 1
    16    8    9 am
    17    8   30 1
    18    9   10 2
    19    9   11 1
    20   11   16 1
    21   11   12 1
    22   11   31 1
    23   12   13 1
    24   12   32 1
    25   12   33 1
    26   13   14 2
    27   13   15 am
    28   15   16 1
    29   15   17 1
    30   16   34 1
    31   16   35 1
    32   17   22 1
    33   17   18 1
    34   17   36 1
    35   18   19 1
    36   18   37 1
    37   18   38 1
    38   19   20 1
    39   19   39 1
    40   19   40 1
    41   20   21 1
    42   20   41 1
    43   20   42 1
    44   21   22 1
    45   21   43 1
    46   21   44 1
    47   22   45 1
    48   22   46 1
@<TRIPOS>MOLECULE
CHEMBL404983
   49    50     0     0     0
SMALL
USER_CHARGES

@<TRIPOS>ATOM
      1 C1          0.0931    1.4280    0.0757 C.3       1 <0>        -0.1546
      2 C2          0.0918   -0.1017    0.0437 C.3       1 <0>        -0.1260
      3 C3         -1.3510   -0.6108    0.0593 C.3       1 <0>        -0.1211
      4 C4         -1.3524   -2.1404    0.0272 C.3       1 <0>        -0.1213
      5 C5         -2.7951   -2.6496    0.0429 C.3       1 <0>        -0.1142
      6 C6         -2.7965   -4.1792    0.0108 C.3       1 <0>        -0.0784
      7 C7         -4.2175   -4.6807    0.0262 C.ar      1 <0>        -0.0952
      8 C8         -4.8479   -4.9299    1.2312 C.ar      1 <0>        -0.0868
      9 C9         -6.1514   -5.3895    1.2508 C.ar      1 <0>        -0.1782
     10 C10        -6.8293   -5.6016    0.0607 C.ar      1 <0>         0.0923
     11 C11        -6.1946   -5.3507   -1.1522 C.ar      1 <0>         0.0852
     12 C12        -4.8896   -4.8851   -1.1644 C.ar      1 <0>        -0.1067
     13 O1         -6.8555   -5.5572   -2.3227 O.3       1 <0>        -0.4864
     14 O2         -8.1114   -6.0541    0.0781 O.3       1 <0>        -0.2483
     15 C13        -8.6565   -6.3804    1.2793 C.ar      1 <0>         0.1012
     16 C14        -9.0669   -5.3805    2.1505 C.ar      1 <0>        -0.1472
     17 C15        -9.6217   -5.7109    3.3719 C.ar      1 <0>        -0.0862
     18 C16        -9.7695   -7.0371    3.7305 C.ar      1 <0>        -0.1180
     19 C17        -9.3607   -8.0418    2.8630 C.ar      1 <0>         0.1578
     20 C18        -8.8084   -7.7120    1.6331 C.ar      1 <0>        -0.1473
     21 N1         -9.5099   -9.3847    3.2264 N.am      1 <0>        -0.6753
     22 C19       -10.5764   -9.7714    3.9541 C.2       1 <0>         0.5120
     23 O3        -11.3647   -8.9445    4.3615 O.2       1 <0>        -0.5233
     24 C20       -10.7894  -11.2312    4.2618 C.3       1 <0>        -0.1721
     25 H1          1.1210    1.7907    0.0646 H         1 <0>         0.0535
     26 H2         -0.4365    1.8102   -0.7969 H         1 <0>         0.0534
     27 H3         -0.4040    1.7729    0.9824 H         1 <0>         0.0533
     28 H4          0.5889   -0.4465   -0.8630 H         1 <0>         0.0606
     29 H5          0.6214   -0.4838    0.9163 H         1 <0>         0.0605
     30 H6         -1.8481   -0.2659    0.9659 H         1 <0>         0.0609
     31 H7         -1.8806   -0.2286   -0.8133 H         1 <0>         0.0610
     32 H8         -0.8552   -2.4853   -0.8794 H         1 <0>         0.0623
     33 H9         -0.8227   -2.5226    0.8999 H         1 <0>         0.0622
     34 H10        -3.2923   -2.3047    0.9495 H         1 <0>         0.0634
     35 H11        -3.3247   -2.2674   -0.8298 H         1 <0>         0.0632
     36 H12        -2.2993   -4.5241   -0.8958 H         1 <0>         0.0735
     37 H13        -2.2668   -4.5614    0.8835 H         1 <0>         0.0738
     38 H14        -4.3206   -4.7654    2.1593 H         1 <0>         0.1287
     39 H15        -6.6414   -5.5837    2.1935 H         1 <0>         0.1346
     40 H16        -4.3962   -4.6857   -2.1042 H         1 <0>         0.1370
     41 H17        -7.3401   -4.7839   -2.6424 H         1 <0>         0.3886
     42 H18        -8.9521   -4.3430    1.8733 H         1 <0>         0.1323
     43 H19        -9.9402   -4.9311    4.0479 H         1 <0>         0.1362
     44 H20       -10.2028   -7.2926    4.6862 H         1 <0>         0.1450
     45 H21        -8.4935   -8.4914    0.9550 H         1 <0>         0.1358
     46 H22        -8.8458  -10.0374    2.9546 H         1 <0>         0.4142
     47 H23       -10.2896  -11.4820    5.1974 H         1 <0>         0.0997
     48 H24       -11.8569  -11.4308    4.3552 H         1 <0>         0.1000
     49 H25       -10.3758  -11.8366    3.4552 H         1 <0>         0.0844
@<TRIPOS>BOND
     1    1    2 1
     2    1   25 1
     3    1   26 1
     4    1   27 1
     5    2    3 1
     6    2   28 1
     7    2   29 1
     8    3    4 1
     9    3   30 1
    10    3   31 1
    11    4    5 1
    12    4   32 1
    13    4   33 1
    14    5    6 1
    15    5   34 1
    16    5   35 1
    17    6    7 1
    18    6   36 1
    19    6   37 1
    20    7   12 ar
    21    7    8 ar
    22    8    9 ar
    23    8   38 1
    24    9   10 ar
    25    9   39 1
    26   10   11 ar
    27   10   14 1
    28   11   12 ar
    29   11   13 1
    30   12   40 1
    31   13   41 1
    32   14   15 1
    33   15   20 ar
    34   15   16 ar
    35   16   17 ar
    36   16   42 1
    37   17   18 ar
    38   17   43 1
    39   18   19 ar
    40   18   44 1
    41   19   20 ar
    42   19   21 1
    43   20   45 1
    44   21   22 am
    45   21   46 1
    46   22   23 2
    47   22   24 1
    48   24   47 1
    49   24   48 1
    50   24   49 1
@<TRIPOS>MOLECULE
CHEMBL264175
   44    45     0     0     0
SMALL
USER_CHARGES

@<TRIPOS>ATOM
      1 C1         -1.2298   -0.6114    1.0237 C.3       1 <0>        -0.1545
      2 C2         -0.7865   -2.0651    0.8467 C.3       1 <0>        -0.1260
      3 C3         -0.0804   -2.2223   -0.5015 C.3       1 <0>        -0.1211
      4 C4          0.3629   -3.6760   -0.6785 C.3       1 <0>        -0.1213
      5 C5          1.0690   -3.8333   -2.0267 C.3       1 <0>        -0.1140
      6 C6          1.5123   -5.2869   -2.2037 C.3       1 <0>        -0.0775
      7 C7          2.2078   -5.4418   -3.5316 C.ar      1 <0>        -0.0995
      8 C8          1.4764   -5.7637   -4.6599 C.ar      1 <0>        -0.0875
      9 C9          2.1096   -5.9074   -5.8802 C.ar      1 <0>        -0.1776
     10 C10         3.4808   -5.7282   -5.9747 C.ar      1 <0>         0.0945
     11 C11         4.2169   -5.4037   -4.8389 C.ar      1 <0>         0.0801
     12 C12         3.5749   -5.2562   -3.6198 C.ar      1 <0>        -0.1067
     13 O1          5.5624   -5.2273   -4.9262 O.3       1 <0>        -0.4863
     14 O2          4.1054   -5.8696   -7.1741 O.3       1 <0>        -0.2455
     15 C13         3.3445   -6.1798   -8.2574 C.ar      1 <0>         0.0159
     16 C14         2.7959   -5.1681   -9.0321 C.ar      1 <0>        -0.0730
     17 C15         2.0230   -5.4824  -10.1325 C.ar      1 <0>        -0.1865
     18 C16         1.7949   -6.8116  -10.4635 C.ar      1 <0>         0.2215
     19 C17         2.3443   -7.8238   -9.6877 C.ar      1 <0>        -0.1860
     20 C18         3.1217   -7.5080   -8.5908 C.ar      1 <0>        -0.0717
     21 N1          1.0115   -7.1309  -11.5781 N.pl3     1 <0>        -0.8751
     22 H1         -0.3571    0.0409    0.9924 H         1 <0>         0.0533
     23 H2         -1.9152   -0.3402    0.2207 H         1 <0>         0.0532
     24 H3         -1.7329   -0.4994    1.9842 H         1 <0>         0.0534
     25 H4         -0.1012   -2.3363    1.6497 H         1 <0>         0.0606
     26 H5         -1.6592   -2.7174    0.8780 H         1 <0>         0.0604
     27 H6         -0.7658   -1.9511   -1.3045 H         1 <0>         0.0608
     28 H7          0.7923   -1.5700   -0.5328 H         1 <0>         0.0609
     29 H8          1.0482   -3.9472    0.1245 H         1 <0>         0.0623
     30 H9         -0.5098   -4.3283   -0.6472 H         1 <0>         0.0620
     31 H10         0.3836   -3.5620   -2.8297 H         1 <0>         0.0630
     32 H11         1.9417   -3.1809   -2.0580 H         1 <0>         0.0629
     33 H12         2.1976   -5.5581   -1.4007 H         1 <0>         0.0727
     34 H13         0.6396   -5.9392   -2.1724 H         1 <0>         0.0729
     35 H14         0.4079   -5.9036   -4.5876 H         1 <0>         0.1267
     36 H15         1.5361   -6.1596   -6.7598 H         1 <0>         0.1324
     37 H16         4.1431   -5.0004   -2.7377 H         1 <0>         0.1353
     38 H17         5.8283   -4.3174   -5.1169 H         1 <0>         0.3868
     39 H18         2.9731   -4.1344   -8.7743 H         1 <0>         0.1296
     40 H19         1.5957   -4.6946  -10.7352 H         1 <0>         0.1284
     41 H20         2.1674   -8.8578   -9.9445 H         1 <0>         0.1286
     42 H21         3.5530   -8.2950   -7.9901 H         1 <0>         0.1306
     43 H22         0.6276   -6.4236  -12.1197 H         1 <0>         0.4005
     44 H23         0.8523   -8.0594  -11.8091 H         1 <0>         0.4006
@<TRIPOS>BOND
     1    1    2 1
     2    1   22 1
     3    1   23 1
     4    1   24 1
     5    2    3 1
     6    2   25 1
     7    2   26 1
     8    3    4 1
     9    3   27 1
    10    3   28 1
    11    4    5 1
    12    4   29 1
    13    4   30 1
    14    5    6 1
    15    5   31 1
    16    5   32 1
    17    6    7 1
    18    6   33 1
    19    6   34 1
    20    7   12 ar
    21    7    8 ar
    22    8    9 ar
    23    8   35 1
    24    9   10 ar
    25    9   36 1
    26   10   11 ar
    27   10   14 1
    28   11   12 ar
    29   11   13 1
    30   12   37 1
    31   13   38 1
    32   14   15 1
    33   15   20 ar
    34   15   16 ar
    35   16   17 ar
    36   16   39 1
    37   17   18 ar
    38   17   40 1
    39   18   19 ar
    40   18   21 1
    41   19   20 ar
    42   19   41 1
    43   20   42 1
    44   21   43 1
    45   21   44 1
@<TRIPOS>MOLECULE
CHEMBL386324
   46    48     0     0     0
SMALL
USER_CHARGES

@<TRIPOS>ATOM
      1 C1          0.1260    1.1589    0.7455 C.ar      1 <0>        -0.0826
      2 C2          1.3129    1.8655    0.7304 C.ar      1 <0>        -0.1557
      3 C3          2.3769    1.4166   -0.0295 C.ar      1 <0>        -0.0563
      4 C4          2.2567    0.2584   -0.7775 C.ar      1 <0>        -0.0746
      5 C5          1.0719   -0.4526   -0.7664 C.ar      1 <0>        -0.0625
      6 C6          0.0017   -0.0036   -0.0037 C.ar      1 <0>         0.1544
      7 N1         -1.1992   -0.7215    0.0101 N.am      1 <0>        -0.6686
      8 C7         -1.1827   -2.0647   -0.0990 C.2       1 <0>         0.5294
      9 O1         -0.1256   -2.6591   -0.1129 O.2       1 <0>        -0.5029
     10 C8         -2.4778   -2.8282   -0.2038 C.3       1 <0>        -0.1227
     11 C9         -3.2775   -2.7452    1.1171 C.3       1 <0>        -0.1486
     12 C10        -3.9079   -4.1134    1.2556 C.2       1 <0>         0.5211
     13 O2         -4.8293   -4.3819    1.9972 O.2       1 <0>        -0.5179
     14 N2         -3.2986   -4.9883    0.4369 N.am      1 <0>        -0.6155
     15 C11        -2.2168   -4.3464   -0.3192 C.3       1 <0>         0.1161
     16 C12        -3.6671   -6.4009    0.3150 C.3       1 <0>         0.1616
     17 C13        -5.1218   -6.5106   -0.1461 C.3       1 <0>        -0.1335
     18 C14        -5.5067   -7.9859   -0.2734 C.3       1 <0>        -0.1151
     19 C15        -5.3488   -8.6732    1.0844 C.3       1 <0>        -0.1234
     20 C16        -3.8940   -8.5635    1.5454 C.3       1 <0>        -0.1151
     21 C17        -3.5092   -7.0882    1.6728 C.3       1 <0>        -0.1347
     22 Br1         3.7148   -0.3512   -1.8159 Br        1 <0>        -0.0201
     23 C18         1.4478    3.1275    1.5430 C.3       1 <0>         0.5130
     24 F1          1.9234    2.8112    2.8201 F         1 <0>        -0.1711
     25 F2          2.3465    3.9944    0.9122 F         1 <0>        -0.1716
     26 F3          0.1988    3.7484    1.6510 F         1 <0>        -0.1732
     27 H1         -0.7032    1.5080    1.3430 H         1 <0>         0.1489
     28 H2          3.3037    1.9711   -0.0399 H         1 <0>         0.1502
     29 H3          0.9782   -1.3563   -1.3504 H         1 <0>         0.1562
     30 H4         -2.0437   -0.2524    0.0982 H         1 <0>         0.4196
     31 H5         -3.0727   -2.4697   -1.0438 H         1 <0>         0.1268
     32 H6         -2.6098   -2.5462    1.9554 H         1 <0>         0.1098
     33 H7         -4.0466   -1.9759    1.0497 H         1 <0>         0.1141
     34 H8         -2.2508   -4.6567   -1.3635 H         1 <0>         0.0886
     35 H9         -1.2505   -4.5973    0.1183 H         1 <0>         0.0939
     36 H10        -3.0173   -6.8842   -0.4146 H         1 <0>         0.0894
     37 H11        -5.7716   -6.0272    0.5835 H         1 <0>         0.0792
     38 H12        -5.2343   -6.0209   -1.1134 H         1 <0>         0.0629
     39 H13        -6.5431   -8.0640   -0.6019 H         1 <0>         0.0666
     40 H14        -4.8569   -8.4692   -1.0030 H         1 <0>         0.0628
     41 H15        -5.9986   -8.1899    1.8140 H         1 <0>         0.0646
     42 H16        -5.6229   -9.7242    0.9936 H         1 <0>         0.0642
     43 H17        -3.7816   -9.0531    2.5127 H         1 <0>         0.0666
     44 H18        -3.2443   -9.0468    0.8158 H         1 <0>         0.0629
     45 H19        -2.4728   -7.0101    2.0012 H         1 <0>         0.0634
     46 H20        -4.1590   -6.6049    2.4023 H         1 <0>         0.0793
@<TRIPOS>BOND
     1    1    6 ar
     2    1    2 ar
     3    1   27 1
     4    2    3 ar
     5    2   23 1
     6    3    4 ar
     7    3   28 1
     8    4    5 ar
     9    4   22 1
    10    5    6 ar
    11    5   29 1
    12    6    7 1
    13    7    8 am
    14    7   30 1
    15    8    9 2
    16    8   10 1
    17   10   15 1
    18   10   11 1
    19   10   31 1
    20   11   12 1
    21   11   32 1
    22   11   33 1
    23   12   13 2
    24   12   14 am
    25   14   15 1
    26   14   16 1
    27   15   34 1
    28   15   35 1
    29   16   21 1
    30   16   17 1
    31   16   36 1
    32   17   18 1
    33   17   37 1
    34   17   38 1
    35   18   19 1
    36   18   39 1
    37   18   40 1
    38   19   20 1
    39   19   41 1
    40   19   42 1
    41   20   21 1
    42   20   43 1
    43   20   44 1
    44   21   45 1
    45   21   46 1
    46   23   24 1
    47   23   25 1
    48   23   26 1
@<TRIPOS>MOLECULE
CHEMBL386324__1
   46    48     0     0     0
SMALL
USER_CHARGES

@<TRIPOS>ATOM
      1 C1          0.1260    1.1590    0.7454 C.ar      1 <0>        -0.0828
      2 C2          1.3129    1.8655    0.7302 C.ar      1 <0>        -0.1560
      3 C3          2.3769    1.4167   -0.0298 C.ar      1 <0>        -0.0566
      4 C4          2.2567    0.2584   -0.7777 C.ar      1 <0>        -0.0743
      5 C5          1.0719   -0.4526   -0.7665 C.ar      1 <0>        -0.0621
      6 C6          0.0017   -0.0036   -0.0038 C.ar      1 <0>         0.1553
      7 N1         -1.1992   -0.7215    0.0101 N.am      1 <0>        -0.6699
      8 C7         -1.1827   -2.0647   -0.0990 C.2       1 <0>         0.5227
      9 O1         -0.1256   -2.6591   -0.1129 O.2       1 <0>        -0.4998
     10 C8         -2.4778   -2.8282   -0.2038 C.3       1 <0>        -0.1242
     11 C9         -3.1903   -2.5281   -1.5429 C.3       1 <0>        -0.1482
     12 C10        -2.7153   -3.6253   -2.4699 C.2       1 <0>         0.5160
     13 O2         -2.8119   -3.6037   -3.6786 O.2       1 <0>        -0.5194
     14 N2         -2.1702   -4.6274   -1.7589 N.am      1 <0>        -0.6109
     15 C11        -2.2168   -4.3464   -0.3192 C.3       1 <0>         0.1154
     16 C12        -1.6025   -5.8438   -2.3457 C.3       1 <0>         0.1640
     17 C13        -0.4514   -5.4693   -3.2815 C.3       1 <0>        -0.1334
     18 C14         0.1415   -6.7396   -3.8944 C.3       1 <0>        -0.1147
     19 C15        -0.9404   -7.4767   -4.6863 C.3       1 <0>        -0.1231
     20 C16        -2.0915   -7.8512   -3.7506 C.3       1 <0>        -0.1147
     21 C17        -2.6844   -6.5808   -3.1377 C.3       1 <0>        -0.1336
     22 Br1         3.7147   -0.3512   -1.8161 Br        1 <0>        -0.0202
     23 C18         1.4479    3.1275    1.5428 C.3       1 <0>         0.5133
     24 F1          1.9235    2.8112    2.8199 F         1 <0>        -0.1713
     25 F2          2.3466    3.9945    0.9119 F         1 <0>        -0.1715
     26 F3          0.1989    3.7484    1.6509 F         1 <0>        -0.1734
     27 H1         -0.7031    1.5080    1.3429 H         1 <0>         0.1487
     28 H2          3.3036    1.9711   -0.0401 H         1 <0>         0.1501
     29 H3          0.9782   -1.3563   -1.3505 H         1 <0>         0.1545
     30 H4         -2.0437   -0.2524    0.0983 H         1 <0>         0.4189
     31 H5         -3.1280   -2.6074    0.6427 H         1 <0>         0.1329
     32 H6         -4.2721   -2.5756   -1.4185 H         1 <0>         0.1217
     33 H7         -2.8916   -1.5513   -1.9235 H         1 <0>         0.1055
     34 H8         -1.2647   -4.6019    0.1460 H         1 <0>         0.0986
     35 H9         -3.0277   -4.9051    0.1482 H         1 <0>         0.0859
     36 H10        -1.2295   -6.4904   -1.5515 H         1 <0>         0.0883
     37 H11        -0.8244   -4.8226   -4.0757 H         1 <0>         0.0770
     38 H12         0.3194   -4.9442   -2.7173 H         1 <0>         0.0651
     39 H13         0.9616   -6.4729   -4.5610 H         1 <0>         0.0659
     40 H14         0.5145   -7.3863   -3.1002 H         1 <0>         0.0625
     41 H15        -1.3134   -6.8300   -5.4805 H         1 <0>         0.0641
     42 H16        -0.5180   -8.3817   -5.1230 H         1 <0>         0.0637
     43 H17        -2.8622   -8.3762   -4.3148 H         1 <0>         0.0661
     44 H18        -1.7185   -8.4978   -2.9564 H         1 <0>         0.0625
     45 H19        -3.5044   -6.8476   -2.4711 H         1 <0>         0.0624
     46 H20        -3.0574   -5.9341   -3.9319 H         1 <0>         0.0789
@<TRIPOS>BOND
     1    1    6 ar
     2    1    2 ar
     3    1   27 1
     4    2    3 ar
     5    2   23 1
     6    3    4 ar
     7    3   28 1
     8    4    5 ar
     9    4   22 1
    10    5    6 ar
    11    5   29 1
    12    6    7 1
    13    7    8 am
    14    7   30 1
    15    8    9 2
    16    8   10 1
    17   10   15 1
    18   10   11 1
    19   10   31 1
    20   11   12 1
    21   11   32 1
    22   11   33 1
    23   12   13 2
    24   12   14 am
    25   14   15 1
    26   14   16 1
    27   15   34 1
    28   15   35 1
    29   16   21 1
    30   16   17 1
    31   16   36 1
    32   17   18 1
    33   17   37 1
    34   17   38 1
    35   18   19 1
    36   18   39 1
    37   18   40 1
    38   19   20 1
    39   19   41 1
    40   19   42 1
    41   20   21 1
    42   20   43 1
    43   20   44 1
    44   21   45 1
    45   21   46 1
    46   23   24 1
    47   23   25 1
    48   23   26 1
@<TRIPOS>MOLECULE
CHEMBL264434
   44    45     0     0     0
SMALL
USER_CHARGES

@<TRIPOS>ATOM
      1 C1         -0.0154    1.5381    0.0217 C.3       1 <0>        -0.1546
      2 C2         -0.0186    0.0081    0.0249 C.3       1 <0>        -0.1260
      3 C3          0.7335   -0.5008    1.2563 C.3       1 <0>        -0.1212
      4 C4          0.7304   -2.0307    1.2596 C.3       1 <0>        -0.1211
      5 C5          1.4824   -2.5396    2.4910 C.3       1 <0>        -0.1140
      6 C6          1.4793   -4.0696    2.4943 C.3       1 <0>        -0.0834
      7 C7          2.2200   -4.5709    3.7072 C.ar      1 <0>        -0.0615
      8 C8          3.5821   -4.7983    3.6383 C.ar      1 <0>        -0.1133
      9 C9          4.2661   -5.2585    4.7478 C.ar      1 <0>        -0.1066
     10 C10         3.5866   -5.4925    5.9330 C.ar      1 <0>         0.0578
     11 C11         2.2155   -5.2631    6.0023 C.ar      1 <0>         0.1019
     12 C12         1.5371   -4.7968    4.8877 C.ar      1 <0>        -0.1336
     13 O1          1.5442   -5.4911    7.1627 O.3       1 <0>        -0.4880
     14 O2          4.2577   -5.9456    7.0252 O.3       1 <0>        -0.2599
     15 C13         4.2073   -7.2767    7.2987 C.ar      1 <0>         0.0504
     16 C14         3.5868   -8.1443    6.4146 C.ar      1 <0>        -0.1396
     17 C15         3.5363   -9.4975    6.6941 C.ar      1 <0>        -0.1434
     18 C16         4.1044   -9.9892    7.8548 C.ar      1 <0>        -0.0999
     19 C17         4.7259   -9.1305    8.7419 C.ar      1 <0>        -0.1720
     20 C18         4.7847   -7.7722    8.4661 C.ar      1 <0>         0.2007
     21 N1          5.4175   -6.9014    9.3603 N.pl3     1 <0>        -0.8752
     22 H1          1.0126    1.8993   -0.0055 H         1 <0>         0.0534
     23 H2         -0.5512    1.9007   -0.8556 H         1 <0>         0.0537
     24 H3         -0.5055    1.9044    0.9238 H         1 <0>         0.0533
     25 H4         -1.0466   -0.3530    0.0521 H         1 <0>         0.0606
     26 H5          0.4715   -0.3581   -0.8772 H         1 <0>         0.0607
     27 H6          1.7615   -0.1396    1.2292 H         1 <0>         0.0613
     28 H7          0.2434   -0.1345    2.1584 H         1 <0>         0.0610
     29 H8         -0.2977   -2.3919    1.2868 H         1 <0>         0.0626
     30 H9          1.2204   -2.3970    0.3575 H         1 <0>         0.0630
     31 H10         2.5105   -2.1785    2.4639 H         1 <0>         0.0646
     32 H11         0.9923   -2.1734    3.3931 H         1 <0>         0.0635
     33 H12         0.4512   -4.4308    2.5214 H         1 <0>         0.0755
     34 H13         1.9694   -4.4359    1.5922 H         1 <0>         0.0770
     35 H14         4.1127   -4.6164    2.7154 H         1 <0>         0.1330
     36 H15         5.3299   -5.4360    4.6911 H         1 <0>         0.1354
     37 H16         0.4740   -4.6138    4.9401 H         1 <0>         0.1350
     38 H17         1.5022   -4.7241    7.7501 H         1 <0>         0.3929
     39 H18         3.1420   -7.7635    5.5071 H         1 <0>         0.1226
     40 H19         3.0515  -10.1722    6.0041 H         1 <0>         0.1215
     41 H20         4.0622  -11.0470    8.0690 H         1 <0>         0.1240
     42 H21         5.1685   -9.5174    9.6479 H         1 <0>         0.1278
     43 H22         5.4546   -5.9514    9.1679 H         1 <0>         0.4019
     44 H23         5.8190   -7.2478   10.1725 H         1 <0>         0.3984
@<TRIPOS>BOND
     1    1    2 1
     2    1   22 1
     3    1   23 1
     4    1   24 1
     5    2    3 1
     6    2   25 1
     7    2   26 1
     8    3    4 1
     9    3   27 1
    10    3   28 1
    11    4    5 1
    12    4   29 1
    13    4   30 1
    14    5    6 1
    15    5   31 1
    16    5   32 1
    17    6    7 1
    18    6   33 1
    19    6   34 1
    20    7   12 ar
    21    7    8 ar
    22    8    9 ar
    23    8   35 1
    24    9   10 ar
    25    9   36 1
    26   10   11 ar
    27   10   14 1
    28   11   12 ar
    29   11   13 1
    30   12   37 1
    31   13   38 1
    32   14   15 1
    33   15   20 ar
    34   15   16 ar
    35   16   17 ar
    36   16   39 1
    37   17   18 ar
    38   17   40 1
    39   18   19 ar
    40   18   41 1
    41   19   20 ar
    42   19   42 1
    43   20   21 1
    44   21   43 1
    45   21   44 1
@<TRIPOS>MOLECULE
CHEMBL404984
   44    45     0     0     0
SMALL
USER_CHARGES

@<TRIPOS>ATOM
      1 C1         -1.2281   -0.6061    1.0207 C.3       1 <0>        -0.1545
      2 C2         -0.7858   -2.0601    0.8441 C.3       1 <0>        -0.1260
      3 C3         -0.0793   -2.2181   -0.5038 C.3       1 <0>        -0.1211
      4 C4          0.3630   -3.6721   -0.6804 C.3       1 <0>        -0.1213
      5 C5          1.0695   -3.8301   -2.0283 C.3       1 <0>        -0.1142
      6 C6          1.5118   -5.2841   -2.2049 C.3       1 <0>        -0.0779
      7 C7          2.2076   -5.4398   -3.5325 C.ar      1 <0>        -0.0971
      8 C8          1.4764   -5.7614   -4.6610 C.ar      1 <0>        -0.0872
      9 C9          2.1098   -5.9049   -5.8812 C.ar      1 <0>        -0.1755
     10 C10         3.4809   -5.7263   -5.9754 C.ar      1 <0>         0.0969
     11 C11         4.2170   -5.4026   -4.8393 C.ar      1 <0>         0.0827
     12 C12         3.5748   -5.2551   -3.6203 C.ar      1 <0>        -0.1068
     13 O1          5.5626   -5.2267   -4.9264 O.3       1 <0>        -0.4862
     14 O2          4.1057   -5.8675   -7.1748 O.3       1 <0>        -0.2526
     15 C13         3.3455   -6.1770   -8.2575 C.ar      1 <0>         0.1288
     16 C14         2.7958   -5.1648   -9.0327 C.ar      1 <0>        -0.1851
     17 C15         2.0221   -5.4779  -10.1337 C.ar      1 <0>        -0.0567
     18 C16         1.7927   -6.7989  -10.4671 C.ar      1 <0>        -0.1959
     19 C17         2.3404   -7.8162   -9.6955 C.ar      1 <0>         0.2300
     20 C18         3.1228   -7.5035   -8.5921 C.ar      1 <0>        -0.2063
     21 N1          2.1085   -9.1517  -10.0324 N.pl3     1 <0>        -0.8745
     22 H1         -0.3550    0.0456    0.9895 H         1 <0>         0.0534
     23 H2         -1.9131   -0.3346    0.2174 H         1 <0>         0.0533
     24 H3         -1.7314   -0.4935    1.9810 H         1 <0>         0.0534
     25 H4         -0.1009   -2.3316    1.6474 H         1 <0>         0.0605
     26 H5         -1.6590   -2.7118    0.8753 H         1 <0>         0.0604
     27 H6         -0.7643   -1.9466   -1.3070 H         1 <0>         0.0609
     28 H7          0.7938   -1.5664   -0.5350 H         1 <0>         0.0610
     29 H8          1.0479   -3.9436    0.1229 H         1 <0>         0.0623
     30 H9         -0.5102   -4.3238   -0.6492 H         1 <0>         0.0621
     31 H10         0.3845   -3.5586   -2.8315 H         1 <0>         0.0633
     32 H11         1.9426   -3.1784   -2.0595 H         1 <0>         0.0632
     33 H12         2.1967   -5.5557   -1.4016 H         1 <0>         0.0731
     34 H13         0.6386   -5.9359   -2.1737 H         1 <0>         0.0733
     35 H14         0.4079   -5.9012   -4.5888 H         1 <0>         0.1280
     36 H15         1.5362   -6.1565   -6.7611 H         1 <0>         0.1334
     37 H16         4.1430   -4.9996   -2.7381 H         1 <0>         0.1365
     38 H17         5.8289   -4.3168   -5.1167 H         1 <0>         0.3878
     39 H18         2.9730   -4.1312   -8.7745 H         1 <0>         0.1272
     40 H19         1.5955   -4.6885  -10.7348 H         1 <0>         0.1311
     41 H20         1.1869   -7.0409  -11.3279 H         1 <0>         0.1262
     42 H21         3.5534   -8.2923   -7.9931 H         1 <0>         0.1283
     43 H22         1.5648   -9.3695  -10.8056 H         1 <0>         0.4014
     44 H23         2.4912   -9.8614   -9.4932 H         1 <0>         0.4005
@<TRIPOS>BOND
     1    1    2 1
     2    1   22 1
     3    1   23 1
     4    1   24 1
     5    2    3 1
     6    2   25 1
     7    2   26 1
     8    3    4 1
     9    3   27 1
    10    3   28 1
    11    4    5 1
    12    4   29 1
    13    4   30 1
    14    5    6 1
    15    5   31 1
    16    5   32 1
    17    6    7 1
    18    6   33 1
    19    6   34 1
    20    7   12 ar
    21    7    8 ar
    22    8    9 ar
    23    8   35 1
    24    9   10 ar
    25    9   36 1
    26   10   11 ar
    27   10   14 1
    28   11   12 ar
    29   11   13 1
    30   12   37 1
    31   13   38 1
    32   14   15 1
    33   15   20 ar
    34   15   16 ar
    35   16   17 ar
    36   16   39 1
    37   17   18 ar
    38   17   40 1
    39   18   19 ar
    40   18   41 1
    41   19   20 ar
    42   19   21 1
    43   20   42 1
    44   21   43 1
    45   21   44 1
@<TRIPOS>MOLECULE
CHEMBL505886
   48    49     0     0     0
SMALL
USER_CHARGES

@<TRIPOS>ATOM
      1 C1         -0.2692   -0.9868   -2.0817 C.3       1 <0>        -0.1544
      2 C2         -0.3146   -2.4505   -1.6385 C.3       1 <0>        -0.1261
      3 C3          0.5025   -2.6207   -0.3562 C.3       1 <0>        -0.1214
      4 C4          0.4572   -4.0844    0.0869 C.3       1 <0>        -0.1211
      5 C5          1.2743   -4.2546    1.3692 C.3       1 <0>        -0.1205
      6 C6          1.2289   -5.7183    1.8124 C.3       1 <0>        -0.1208
      7 C7          2.0460   -5.8885    3.0947 C.3       1 <0>        -0.1141
      8 C8          2.0007   -7.3522    3.5378 C.3       1 <0>        -0.0782
      9 C9          2.8055   -7.5198    4.8008 C.ar      1 <0>        -0.0961
     10 C10         4.1532   -7.8192    4.7252 C.ar      1 <0>        -0.0867
     11 C11         4.8958   -7.9744    5.8807 C.ar      1 <0>        -0.1773
     12 C12         4.2897   -7.8295    7.1187 C.ar      1 <0>         0.0938
     13 C13         2.9331   -7.5277    7.1947 C.ar      1 <0>         0.0836
     14 C14         2.1959   -7.3684    6.0323 C.ar      1 <0>        -0.1062
     15 O1          2.3337   -7.3846    8.4069 O.3       1 <0>        -0.4859
     16 O2          5.0185   -7.9823    8.2563 O.3       1 <0>        -0.2514
     17 C15         6.3409   -8.2694    8.1330 C.ar      1 <0>         0.0794
     18 C16         7.2717   -7.2424    8.0654 C.ar      1 <0>        -0.1263
     19 C17         8.6154   -7.5370    7.9400 C.ar      1 <0>        -0.1063
     20 C18         9.0333   -8.8538    7.8818 C.ar      1 <0>        -0.1162
     21 C19         8.1079   -9.8790    7.9489 C.ar      1 <0>        -0.1058
     22 C20         6.7635   -9.5900    8.0801 C.ar      1 <0>        -0.1250
     23 H1          0.7645   -0.6955   -2.2682 H         1 <0>         0.0533
     24 H2         -0.8513   -0.8655   -2.9952 H         1 <0>         0.0535
     25 H3         -0.6884   -0.3565   -1.2973 H         1 <0>         0.0533
     26 H4         -1.3482   -2.7417   -1.4520 H         1 <0>         0.0603
     27 H5          0.1046   -3.0807   -2.4228 H         1 <0>         0.0603
     28 H6          1.5362   -2.3294   -0.5427 H         1 <0>         0.0605
     29 H7          0.0833   -1.9904    0.4281 H         1 <0>         0.0606
     30 H8         -0.5765   -4.3757    0.2735 H         1 <0>         0.0609
     31 H9          0.8764   -4.7146   -0.6974 H         1 <0>         0.0608
     32 H10         2.3080   -3.9633    1.1827 H         1 <0>         0.0607
     33 H11         0.8551   -3.6243    2.1535 H         1 <0>         0.0608
     34 H12         0.1952   -6.0096    1.9989 H         1 <0>         0.0623
     35 H13         1.6481   -6.3485    1.0281 H         1 <0>         0.0621
     36 H14         3.0797   -5.5972    2.9081 H         1 <0>         0.0631
     37 H15         1.6268   -5.2582    3.8790 H         1 <0>         0.0630
     38 H16         0.9670   -7.6435    3.7243 H         1 <0>         0.0735
     39 H17         2.4199   -7.9824    2.7535 H         1 <0>         0.0738
     40 H18         4.6267   -7.9324    3.7612 H         1 <0>         0.1286
     41 H19         5.9482   -8.2090    5.8189 H         1 <0>         0.1319
     42 H20         1.1440   -7.1298    6.0884 H         1 <0>         0.1370
     43 H21         2.3518   -6.4808    8.7503 H         1 <0>         0.3879
     44 H22         6.9458   -6.2138    8.1105 H         1 <0>         0.1303
     45 H23         9.3402   -6.7381    7.8870 H         1 <0>         0.1316
     46 H24        10.0843   -9.0819    7.7834 H         1 <0>         0.1296
     47 H25         8.4369  -10.9066    7.9033 H         1 <0>         0.1318
     48 H26         6.0415  -10.3912    8.1370 H         1 <0>         0.1313
@<TRIPOS>BOND
     1    1    2 1
     2    1   23 1
     3    1   24 1
     4    1   25 1
     5    2    3 1
     6    2   26 1
     7    2   27 1
     8    3    4 1
     9    3   28 1
    10    3   29 1
    11    4    5 1
    12    4   30 1
    13    4   31 1
    14    5    6 1
    15    5   32 1
    16    5   33 1
    17    6    7 1
    18    6   34 1
    19    6   35 1
    20    7    8 1
    21    7   36 1
    22    7   37 1
    23    8    9 1
    24    8   38 1
    25    8   39 1
    26    9   14 ar
    27    9   10 ar
    28   10   11 ar
    29   10   40 1
    30   11   12 ar
    31   11   41 1
    32   12   13 ar
    33   12   16 1
    34   13   14 ar
    35   13   15 1
    36   14   42 1
    37   15   43 1
    38   16   17 1
    39   17   22 ar
    40   17   18 ar
    41   18   19 ar
    42   18   44 1
    43   19   20 ar
    44   19   45 1
    45   20   21 ar
    46   20   46 1
    47   21   22 ar
    48   21   47 1
    49   22   48 1
@<TRIPOS>MOLECULE
CHEMBL264415
   44    45     0     0     0
SMALL
USER_CHARGES

@<TRIPOS>ATOM
      1 C1         -0.0302    1.5380    0.0081 C.3       1 <0>        -0.1548
      2 C2         -0.0076    0.0086   -0.0269 C.3       1 <0>        -0.1258
      3 C3         -1.4420   -0.5233   -0.0016 C.3       1 <0>        -0.1216
      4 C4         -1.4194   -2.0528   -0.0366 C.3       1 <0>        -0.1209
      5 C5         -2.8538   -2.5847   -0.0113 C.3       1 <0>        -0.1148
      6 C6         -2.8312   -4.1141   -0.0463 C.3       1 <0>        -0.0850
      7 C7         -4.2440   -4.6380   -0.0214 C.ar      1 <0>        -0.0521
      8 C8         -4.8614   -4.8994    1.1878 C.ar      1 <0>        -0.1128
      9 C9         -6.1573   -5.3796    1.2161 C.ar      1 <0>        -0.0967
     10 C10        -6.8406   -5.6002    0.0306 C.ar      1 <0>         0.0335
     11 C11        -6.2190   -5.3371   -1.1865 C.ar      1 <0>         0.1104
     12 C12        -4.9216   -4.8508   -1.2074 C.ar      1 <0>        -0.1326
     13 O1         -6.8851   -5.5519   -2.3524 O.3       1 <0>        -0.4923
     14 O2         -8.1152   -6.0730    0.0566 O.3       1 <0>        -0.2188
     15 C13        -8.3069   -7.4022   -0.1501 C.ar      1 <0>         0.1975
     16 C14        -7.2160   -8.2526   -0.2628 C.ar      1 <0>        -0.1941
     17 C15        -7.4136   -9.6033   -0.4725 C.ar      1 <0>        -0.0289
     18 C16        -8.6972  -10.1086   -0.5706 C.ar      1 <0>        -0.1515
     19 C17        -9.7857   -9.2635   -0.4592 C.ar      1 <0>        -0.0236
     20 C18        -9.5937   -7.9125   -0.2432 C.ar      1 <0>        -0.0818
     21 N1        -10.7597   -7.0093   -0.1179 N.pl3     1 <0>         0.0407
     22 O3        -11.8808   -7.4546   -0.1991 O.2       1 <0>        -0.1733
     23 O4        -10.5910   -5.8263    0.0657 O.3       1 <0>        -0.1386
     24 H1          0.9916    1.9170   -0.0099 H         1 <0>         0.0538
     25 H2         -0.5723    1.9134   -0.8598 H         1 <0>         0.0535
     26 H3         -0.5260    1.8733    0.9191 H         1 <0>         0.0536
     27 H4          0.4882   -0.3267   -0.9378 H         1 <0>         0.0605
     28 H5          0.5344   -0.3668    0.8411 H         1 <0>         0.0607
     29 H6         -1.9378   -0.1880    0.9094 H         1 <0>         0.0617
     30 H7         -1.9841   -0.1480   -0.8695 H         1 <0>         0.0614
     31 H8         -0.9236   -2.3881   -0.9475 H         1 <0>         0.0628
     32 H9         -0.8774   -2.4281    0.8314 H         1 <0>         0.0632
     33 H10        -3.3496   -2.2494    0.8997 H         1 <0>         0.0658
     34 H11        -3.3958   -2.2093   -0.8793 H         1 <0>         0.0645
     35 H12        -2.3354   -4.4494   -0.9572 H         1 <0>         0.0771
     36 H13        -2.2891   -4.4895    0.8217 H         1 <0>         0.0788
     37 H14        -4.3299   -4.7282    2.1122 H         1 <0>         0.1373
     38 H15        -6.6372   -5.5833    2.1620 H         1 <0>         0.1393
     39 H16        -4.4383   -4.6420   -2.1504 H         1 <0>         0.1391
     40 H17        -7.3842   -4.7857   -2.6671 H         1 <0>         0.3997
     41 H18        -6.2133   -7.8584   -0.1870 H         1 <0>         0.1476
     42 H19        -6.5650  -10.2655   -0.5603 H         1 <0>         0.1464
     43 H20        -8.8496  -11.1650   -0.7349 H         1 <0>         0.1505
     44 H21       -10.7871   -9.6606   -0.5365 H         1 <0>         0.1610
@<TRIPOS>BOND
     1    1    2 1
     2    1   24 1
     3    1   25 1
     4    1   26 1
     5    2    3 1
     6    2   27 1
     7    2   28 1
     8    3    4 1
     9    3   29 1
    10    3   30 1
    11    4    5 1
    12    4   31 1
    13    4   32 1
    14    5    6 1
    15    5   33 1
    16    5   34 1
    17    6    7 1
    18    6   35 1
    19    6   36 1
    20    7   12 ar
    21    7    8 ar
    22    8    9 ar
    23    8   37 1
    24    9   10 ar
    25    9   38 1
    26   10   11 ar
    27   10   14 1
    28   11   12 ar
    29   11   13 1
    30   12   39 1
    31   13   40 1
    32   14   15 1
    33   15   20 ar
    34   15   16 ar
    35   16   17 ar
    36   16   41 1
    37   17   18 ar
    38   17   42 1
    39   18   19 ar
    40   18   43 1
    41   19   20 ar
    42   19   44 1
    43   20   21 1
    44   21   22 2
    45   21   23 1
@<TRIPOS>MOLECULE
CHEMBL405653
   52    54     0     0     0
SMALL
USER_CHARGES

@<TRIPOS>ATOM
      1 C1         -0.1422    1.4580    0.0789 C.3       1 <0>        -0.1544
      2 C2         -0.1165   -0.0718    0.0775 C.3       1 <0>        -0.1260
      3 C3          0.6404   -0.5703    1.3102 C.3       1 <0>        -0.1210
      4 C4          0.6661   -2.1000    1.3089 C.3       1 <0>        -0.1214
      5 C5          1.4231   -2.5985    2.5416 C.3       1 <0>        -0.1139
      6 C6          1.4488   -4.1283    2.5402 C.3       1 <0>        -0.0783
      7 C7          2.1943   -4.6192    3.7544 C.ar      1 <0>        -0.0950
      8 C8          3.5606   -4.8207    3.6900 C.ar      1 <0>        -0.0866
      9 C9          4.2492   -5.2704    4.8010 C.ar      1 <0>        -0.1761
     10 C10         3.5700   -5.5205    5.9829 C.ar      1 <0>         0.0936
     11 C11         2.1946   -5.3176    6.0476 C.ar      1 <0>         0.0862
     12 C12         1.5114   -4.8616    4.9317 C.ar      1 <0>        -0.1068
     13 O1          1.5234   -5.5620    7.2048 O.3       1 <0>        -0.4856
     14 O2          4.2456   -5.9634    7.0766 O.3       1 <0>        -0.2480
     15 C13         5.5683   -6.2426    6.9394 C.ar      1 <0>         0.1026
     16 C14         6.4927   -5.2091    6.8681 C.ar      1 <0>        -0.1429
     17 C15         7.8380   -5.4915    6.7286 C.ar      1 <0>        -0.0845
     18 C16         8.2679   -6.8027    6.6596 C.ar      1 <0>        -0.1342
     19 C17         7.3476   -7.8411    6.7299 C.ar      1 <0>         0.1530
     20 C18         5.9962   -7.5595    6.8763 C.ar      1 <0>        -0.1212
     21 N1          7.7826   -9.1679    6.6596 N.am      1 <0>        -0.6555
     22 C19         7.0234  -10.0940    6.0412 C.2       1 <0>         0.5983
     23 O3          5.9251   -9.7936    5.6146 O.2       1 <0>        -0.4805
     24 C20         7.5248  -11.4716    5.8819 C.2       1 <0>         0.0104
     25 C21         6.8699  -12.4998    5.2767 C.2       1 <0>        -0.1909
     26 C22         7.6947  -13.6354    5.3398 C.2       1 <0>         0.0773
     27 N2          8.7955  -13.3077    5.9541 N.2       1 <0>        -0.2868
     28 O4          8.7166  -11.9380    6.3041 O.3       1 <0>        -0.0713
     29 H1          0.8790    1.8385    0.0567 H         1 <0>         0.0532
     30 H2         -0.6815    1.8131   -0.7993 H         1 <0>         0.0535
     31 H3         -0.6424    1.8121    0.9802 H         1 <0>         0.0533
     32 H4         -1.1377   -0.4524    0.0997 H         1 <0>         0.0606
     33 H5          0.3837   -0.4260   -0.8238 H         1 <0>         0.0604
     34 H6          1.6616   -0.1897    1.2880 H         1 <0>         0.0608
     35 H7          0.1402   -0.2161    2.2116 H         1 <0>         0.0610
     36 H8         -0.3550   -2.4806    1.3311 H         1 <0>         0.0624
     37 H9          1.1664   -2.4542    0.4076 H         1 <0>         0.0622
     38 H10         2.4442   -2.2179    2.5194 H         1 <0>         0.0633
     39 H11         0.9228   -2.2443    3.4429 H         1 <0>         0.0631
     40 H12         0.4276   -4.5088    2.5624 H         1 <0>         0.0735
     41 H13         1.9490   -4.4824    1.6389 H         1 <0>         0.0738
     42 H14         4.0911   -4.6265    2.7695 H         1 <0>         0.1286
     43 H15         5.3165   -5.4273    4.7479 H         1 <0>         0.1334
     44 H16         0.4447   -4.6995    4.9804 H         1 <0>         0.1371
     45 H17         1.4644   -4.7976    7.7942 H         1 <0>         0.3878
     46 H18         6.1597   -4.1831    6.9214 H         1 <0>         0.1345
     47 H19         8.5549   -4.6857    6.6731 H         1 <0>         0.1394
     48 H20         9.3201   -7.0207    6.5505 H         1 <0>         0.1363
     49 H21         5.2790   -8.3648    6.9361 H         1 <0>         0.1494
     50 H22         8.6307   -9.4219    7.0559 H         1 <0>         0.4229
     51 H23         5.8890  -12.4512    4.8272 H         1 <0>         0.1761
     52 H24         7.4565  -14.6128    4.9468 H         1 <0>         0.2128
@<TRIPOS>BOND
     1    1    2 1
     2    1   29 1
     3    1   30 1
     4    1   31 1
     5    2    3 1
     6    2   32 1
     7    2   33 1
     8    3    4 1
     9    3   34 1
    10    3   35 1
    11    4    5 1
    12    4   36 1
    13    4   37 1
    14    5    6 1
    15    5   38 1
    16    5   39 1
    17    6    7 1
    18    6   40 1
    19    6   41 1
    20    7   12 ar
    21    7    8 ar
    22    8    9 ar
    23    8   42 1
    24    9   10 ar
    25    9   43 1
    26   10   11 ar
    27   10   14 1
    28   11   12 ar
    29   11   13 1
    30   12   44 1
    31   13   45 1
    32   14   15 1
    33   15   20 ar
    34   15   16 ar
    35   16   17 ar
    36   16   46 1
    37   17   18 ar
    38   17   47 1
    39   18   19 ar
    40   18   48 1
    41   19   20 ar
    42   19   21 1
    43   20   49 1
    44   21   22 am
    45   21   50 1
    46   22   23 2
    47   22   24 1
    48   24   28 1
    49   24   25 2
    50   25   26 1
    51   25   51 1
    52   26   27 2
    53   26   52 1
    54   27   28 1
@<TRIPOS>MOLECULE
CHEMBL408149
   63    65     0     0     0
SMALL
USER_CHARGES

@<TRIPOS>ATOM
      1 C1          1.6767   -2.9267    4.2445 C.3       1 <0>        -0.1553
      2 C2          1.1122   -2.9196    2.8225 C.3       1 <0>        -0.1263
      3 C3         -0.3131   -3.4757    2.8367 C.3       1 <0>        -0.1208
      4 C4         -0.8775   -3.4686    1.4147 C.3       1 <0>        -0.1220
      5 C5         -2.3028   -4.0247    1.4289 C.3       1 <0>        -0.1134
      6 C6         -2.8673   -4.0177    0.0069 C.3       1 <0>        -0.0884
      7 C7         -4.2711   -4.5654    0.0209 C.ar      1 <0>        -0.0485
      8 C8         -4.4839   -5.9217   -0.1430 C.ar      1 <0>        -0.1129
      9 C9         -5.7697   -6.4291   -0.1313 C.ar      1 <0>        -0.1092
     10 C10        -6.8490   -5.5778    0.0454 C.ar      1 <0>         0.0393
     11 C11        -6.6346   -4.2126    0.2107 C.ar      1 <0>         0.1099
     12 C12        -5.3428   -3.7114    0.2032 C.ar      1 <0>        -0.1300
     13 O1         -7.6903   -3.3731    0.3844 O.3       1 <0>        -0.4858
     14 O2         -8.1145   -6.0751    0.0566 O.3       1 <0>        -0.2519
     15 C13        -8.6636   -6.3947    1.2577 C.ar      1 <0>         0.1210
     16 C14        -7.9690   -6.1348    2.4308 C.ar      1 <0>        -0.1974
     17 C15        -8.5295   -6.4607    3.6503 C.ar      1 <0>        -0.0710
     18 C16        -9.7814   -7.0458    3.7031 C.ar      1 <0>        -0.1456
     19 C17       -10.4754   -7.3058    2.5361 C.ar      1 <0>        -0.0607
     20 C18        -9.9220   -6.9761    1.3138 C.ar      1 <0>        -0.1166
     21 C19       -10.6818   -7.2540    0.0424 C.3       1 <0>         0.1058
     22 N1        -10.1780   -8.4912   -0.5687 N.3       1 <0>        -0.5327
     23 C20        -8.7908   -8.3262   -1.0255 C.3       1 <0>         0.0204
     24 C21        -8.2850   -9.6512   -1.5999 C.3       1 <0>        -0.0052
     25 N2         -9.1426  -10.0583   -2.7208 N.4       1 <0>        -0.3880
     26 C22       -10.5196  -10.2430   -2.2441 C.3       1 <0>        -0.0013
     27 C23       -11.0440   -8.9229   -1.6750 C.3       1 <0>         0.0235
     28 C24        -8.6460  -11.3211   -3.2835 C.3       1 <0>        -0.0460
     29 H1          2.6921   -2.5305    4.2344 H         1 <0>         0.0554
     30 H2          1.0512   -2.3067    4.8868 H         1 <0>         0.0538
     31 H3          1.6889   -3.9479    4.6255 H         1 <0>         0.0534
     32 H4          1.1000   -1.8984    2.4415 H         1 <0>         0.0614
     33 H5          1.7377   -3.5395    2.1802 H         1 <0>         0.0610
     34 H6         -0.3008   -4.4969    3.2177 H         1 <0>         0.0609
     35 H7         -0.9386   -2.8558    3.4790 H         1 <0>         0.0613
     36 H8         -0.8897   -2.4474    1.0337 H         1 <0>         0.0641
     37 H9         -0.2520   -4.0886    0.7724 H         1 <0>         0.0636
     38 H10        -2.2906   -5.0459    1.8099 H         1 <0>         0.0642
     39 H11        -2.9283   -3.4048    2.0712 H         1 <0>         0.0641
     40 H12        -2.8795   -2.9965   -0.3741 H         1 <0>         0.0792
     41 H13        -2.2418   -4.6376   -0.6354 H         1 <0>         0.0795
     42 H14        -3.6437   -6.5861   -0.2807 H         1 <0>         0.1355
     43 H15        -5.9332   -7.4888   -0.2602 H         1 <0>         0.1284
     44 H16        -5.1734   -2.6530    0.3357 H         1 <0>         0.1397
     45 H17        -7.9426   -3.2445    1.3090 H         1 <0>         0.3929
     46 H18        -6.9910   -5.6785    2.3901 H         1 <0>         0.1270
     47 H19        -7.9894   -6.2587    4.5635 H         1 <0>         0.1302
     48 H20       -10.2175   -7.3005    4.6578 H         1 <0>         0.1309
     49 H21       -11.4528   -7.7631    2.5800 H         1 <0>         0.1337
     50 H22       -11.7419   -7.3666    0.2698 H         1 <0>         0.0963
     51 H23       -10.5451   -6.4244   -0.6513 H         1 <0>         0.0602
     52 H24        -8.7510   -7.5567   -1.7965 H         1 <0>         0.0653
     53 H25        -8.1635   -8.0314   -0.1842 H         1 <0>         0.1297
     54 H26        -7.2611   -9.5272   -1.9524 H         1 <0>         0.1323
     55 H27        -8.3122  -10.4172   -0.8249 H         1 <0>         0.1357
     56 H28       -11.1523  -10.5577   -3.0740 H         1 <0>         0.1355
     57 H29       -10.5353  -11.0059   -1.4658 H         1 <0>         0.1370
     58 H30       -12.0605   -9.0635   -1.3076 H         1 <0>         0.1236
     59 H31       -11.0412   -8.1632   -2.4567 H         1 <0>         0.0606
     60 H32        -8.6626  -12.0931   -2.5142 H         1 <0>         0.1226
     61 H33        -9.2823  -11.6234   -4.1153 H         1 <0>         0.1241
     62 H34        -7.6246  -11.1839   -3.6385 H         1 <0>         0.1233
     63 H35        -9.1265   -9.3438   -3.4331 H         1 <0>         0.4224
@<TRIPOS>BOND
     1    1    2 1
     2    1   29 1
     3    1   30 1
     4    1   31 1
     5    2    3 1
     6    2   32 1
     7    2   33 1
     8    3    4 1
     9    3   34 1
    10    3   35 1
    11    4    5 1
    12    4   36 1
    13    4   37 1
    14    5    6 1
    15    5   38 1
    16    5   39 1
    17    6    7 1
    18    6   40 1
    19    6   41 1
    20    7   12 ar
    21    7    8 ar
    22    8    9 ar
    23    8   42 1
    24    9   10 ar
    25    9   43 1
    26   10   11 ar
    27   10   14 1
    28   11   12 ar
    29   11   13 1
    30   12   44 1
    31   13   45 1
    32   14   15 1
    33   15   20 ar
    34   15   16 ar
    35   16   17 ar
    36   16   46 1
    37   17   18 ar
    38   17   47 1
    39   18   19 ar
    40   18   48 1
    41   19   20 ar
    42   19   49 1
    43   20   21 1
    44   21   22 1
    45   21   50 1
    46   21   51 1
    47   22   27 1
    48   22   23 1
    49   23   24 1
    50   23   52 1
    51   23   53 1
    52   24   25 1
    53   24   54 1
    54   24   55 1
    55   25   26 1
    56   25   28 1
    57   25   63 1
    58   26   27 1
    59   26   56 1
    60   26   57 1
    61   27   58 1
    62   27   59 1
    63   28   60 1
    64   28   61 1
    65   28   62 1
