@<TRIPOS>MOLECULE
ZINC06277300
   38    40     0     0     0
SMALL
USER_CHARGES
3,6-dimethyl-2-(p-tolyl)quinoline-4-carboxylic acid
@<TRIPOS>ATOM
      1 C1          1.7293    7.7904   -0.0951 C.3       1 <0>        -0.1127
      2 C2          1.6164    6.2877   -0.0760 C.ar      1 <0>        -0.0853
      3 C3          2.3997    5.5271   -0.9255 C.ar      1 <0>        -0.1252
      4 C4          2.3003    4.1507   -0.9127 C.ar      1 <0>        -0.0915
      5 C5          1.4085    3.5271   -0.0415 C.ar      1 <0>        -0.0384
      6 C6          0.6176    4.2990    0.8082 C.ar      1 <0>        -0.0783
      7 C7          0.7297    5.6743    0.7907 C.ar      1 <0>        -0.1273
      8 C8          1.2971    2.0485   -0.0230 C.ar      1 <0>         0.2036
      9 C9          2.4714    1.2807   -0.0481 C.ar      1 <0>        -0.1322
     10 C10         2.3803   -0.1042   -0.0321 C.ar      1 <0>        -0.0199
     11 C11         1.0393   -0.6883    0.0118 C.ar      1 <0>        -0.0836
     12 C12         0.8455   -2.0738    0.0303 C.ar      1 <0>        -0.0706
     13 C13        -0.4214   -2.5761    0.0708 C.ar      1 <0>        -0.1041
     14 C14        -1.5257   -1.7269    0.0941 C.ar      1 <0>        -0.1022
     15 C15        -1.3729   -0.3747    0.0775 C.ar      1 <0>        -0.0985
     16 C16        -0.0804    0.1809    0.0353 C.ar      1 <0>         0.1236
     17 N1          0.1005    1.5023    0.0168 N.ar      1 <0>        -0.4843
     18 C17        -0.6298   -4.0685    0.0913 C.3       1 <0>        -0.1097
     19 C18         3.5888   -0.9546   -0.0577 C.2       1 <0>         0.5029
     20 O1          4.0556   -1.3146   -1.1197 O.co2     1 <0>        -0.6171
     21 C19         3.8191    1.9535   -0.0932 C.3       1 <0>        -0.1087
     22 H1          1.0226    8.1986   -0.8176 H         1 <0>         0.0682
     23 H2          1.5041    8.1843    0.8960 H         1 <0>         0.0643
     24 H3          2.7428    8.0750   -0.3775 H         1 <0>         0.0650
     25 H4          3.0900    6.0114   -1.6002 H         1 <0>         0.1235
     26 H5          2.9120    3.5579   -1.5765 H         1 <0>         0.1303
     27 H6         -0.0785    3.8214    1.4818 H         1 <0>         0.1258
     28 H7          0.1209    6.2732    1.4519 H         1 <0>         0.1216
     29 H8          1.6943   -2.7413    0.0130 H         1 <0>         0.1309
     30 H9         -2.5194   -2.1487    0.1261 H         1 <0>         0.1241
     31 H10        -2.2397    0.2692    0.0958 H         1 <0>         0.1303
     32 H11        -0.6512   -4.4183    1.1234 H         1 <0>         0.0685
     33 H12        -1.5756   -4.3099   -0.3939 H         1 <0>         0.0635
     34 H13         0.1866   -4.5567   -0.4410 H         1 <0>         0.0667
     35 H14         4.1474    2.0403   -1.1290 H         1 <0>         0.0696
     36 H15         3.7441    2.9472    0.3486 H         1 <0>         0.0692
     37 H16         4.5406    1.3598    0.4681 H         1 <0>         0.0764
     38 O2          4.1726   -1.3304    1.0967 O.co2     1 <0>        -0.7387
@<TRIPOS>BOND
     1    1    2 1
     2    1   22 1
     3    1   23 1
     4    1   24 1
     5    2    7 ar
     6    2    3 ar
     7    3    4 ar
     8    3   25 1
     9    4    5 ar
    10    4   26 1
    11    5    6 ar
    12    5    8 1
    13    6    7 ar
    14    6   27 1
    15    7   28 1
    16    8   17 ar
    17    8    9 ar
    18    9   10 ar
    19    9   21 1
    20   10   11 ar
    21   10   19 1
    22   11   16 ar
    23   11   12 ar
    24   12   13 ar
    25   12   29 1
    26   13   14 ar
    27   13   18 1
    28   14   15 ar
    29   14   30 1
    30   15   16 ar
    31   15   31 1
    32   16   17 ar
    33   18   32 1
    34   18   33 1
    35   18   34 1
    36   19   20 2
    37   19   38 1
    38   21   35 1
    39   21   36 1
    40   21   37 1
@<TRIPOS>MOLECULE
ZINC32004134
   24    25     0     0     0
SMALL
USER_CHARGES
2,6-dichloro-3-(4-fluorophenyl)benzoic acid
@<TRIPOS>ATOM
      1 C1          2.2306    5.5809   -3.4587 C.ar      1 <0>        -0.0657
      2 C2          2.2405    6.2859   -4.6447 C.ar      1 <0>        -0.1521
      3 C3          1.3584    7.3371   -4.8354 C.ar      1 <0>         0.0955
      4 C4          0.4594    7.6818   -3.8391 C.ar      1 <0>        -0.1550
      5 C5          0.4394    6.9790   -2.6518 C.ar      1 <0>        -0.0736
      6 C6          1.3249    5.9210   -2.4558 C.ar      1 <0>        -0.0480
      7 C7          1.3074    5.1627   -1.1805 C.ar      1 <0>        -0.0506
      8 C8          1.3452    5.8426    0.0364 C.ar      1 <0>        -0.1000
      9 C9          1.3296    5.1409    1.2256 C.ar      1 <0>        -0.1103
     10 C10         1.2711    3.7602    1.2198 C.ar      1 <0>        -0.0085
     11 C11         1.2382    3.0655    0.0067 C.ar      1 <0>        -0.0693
     12 C12         1.2538    3.7720   -1.1976 C.ar      1 <0>         0.0003
     13 Cl1         1.2072    2.9196   -2.7092 Cl        1 <0>        -0.0473
     14 C13         1.1809    1.5908   -0.0007 C.2       1 <0>         0.5041
     15 O1          2.2087    0.9430   -0.0140 O.co2     1 <0>        -0.6122
     16 O2         -0.0110    0.9628    0.0073 O.co2     1 <0>        -0.7321
     17 Cl2         1.2446    2.8872    2.7201 Cl        1 <0>        -0.0538
     18 F1          1.3752    8.0284   -5.9960 F         1 <0>        -0.1428
     19 H1          2.9216    4.7644   -3.3091 H         1 <0>         0.1371
     20 H2          2.9398    6.0208   -5.4238 H         1 <0>         0.1365
     21 H3         -0.2265    8.5019   -3.9918 H         1 <0>         0.1358
     22 H4         -0.2612    7.2488   -1.8755 H         1 <0>         0.1361
     23 H5          1.3871    6.9217    0.0488 H         1 <0>         0.1379
     24 H6          1.3586    5.6737    2.1645 H         1 <0>         0.1379
@<TRIPOS>BOND
     1    1    6 ar
     2    1    2 ar
     3    1   19 1
     4    2    3 ar
     5    2   20 1
     6    3    4 ar
     7    3   18 1
     8    4    5 ar
     9    4   21 1
    10    5    6 ar
    11    5   22 1
    12    6    7 1
    13    7   12 ar
    14    7    8 ar
    15    8    9 ar
    16    8   23 1
    17    9   10 ar
    18    9   24 1
    19   10   11 ar
    20   10   17 1
    21   11   12 ar
    22   11   14 1
    23   12   13 1
    24   14   15 2
    25   14   16 1
@<TRIPOS>MOLECULE
ZINC08687005
   37    40     0     0     0
SMALL
USER_CHARGES

@<TRIPOS>ATOM
      1 C1         -0.0167    1.3781    0.0096 C.ar      1 <0>        -0.1252
      2 C2          1.1709    2.0855    0.0021 C.ar      1 <0>        -0.1235
      3 C3          2.3773    1.4107   -0.0130 C.ar      1 <0>        -0.1015
      4 C4          2.3960    0.0285   -0.0201 C.ar      1 <0>        -0.0759
      5 C5          1.2084   -0.6789   -0.0117 C.ar      1 <0>        -0.1038
      6 C6          0.0021   -0.0041    0.0020 C.ar      1 <0>        -0.1172
      7 C7          3.7112   -0.7071   -0.0376 C.3       1 <0>         0.0182
      8 C8          4.1644   -0.9594    1.3773 C.2       1 <0>         0.1328
      9 N1          4.9045   -0.1702    2.1037 N.2       1 <0>        -0.2874
     10 N2          5.1022   -0.6906    3.2620 N.2       1 <0>        -0.3447
     11 C9          4.4941   -1.8516    3.3407 C.2       1 <0>         0.3827
     12 N3          3.8701   -2.0583    2.1406 N.pl3     1 <0>        -0.4563
     13 C10         3.0954   -3.1634    1.7692 C.ar      1 <0>         0.1730
     14 C11         3.6862   -4.2597    1.1806 C.ar      1 <0>        -0.1013
     15 C12         2.9254   -5.3641    0.8079 C.ar      1 <0>        -0.1037
     16 C13         1.5797   -5.3921    1.0133 C.ar      1 <0>        -0.1071
     17 C14         0.9387   -4.2938    1.6110 C.ar      1 <0>        -0.0443
     18 C15         1.7039   -3.1666    1.9998 C.ar      1 <0>        -0.0340
     19 C16         1.0627   -2.0723    2.6017 C.ar      1 <0>        -0.0678
     20 C17        -0.2823   -2.1098    2.8089 C.ar      1 <0>        -0.1214
     21 C18        -1.0351   -3.2204    2.4320 C.ar      1 <0>        -0.1100
     22 C19        -0.4491   -4.2941    1.8351 C.ar      1 <0>        -0.1144
     23 S1          4.4788   -2.9347    4.7304 S.3       1 <0>        -0.8011
     24 H1         -0.9591    1.9053    0.0259 H         1 <0>         0.1164
     25 H2          1.1563    3.1654    0.0076 H         1 <0>         0.1187
     26 H3          3.3051    1.9634   -0.0196 H         1 <0>         0.1244
     27 H4          1.2231   -1.7588   -0.0176 H         1 <0>         0.1169
     28 H5         -0.9258   -0.5567    0.0082 H         1 <0>         0.1170
     29 H6          3.5884   -1.6586   -0.5549 H         1 <0>         0.0801
     30 H7          4.4573   -0.1052   -0.5563 H         1 <0>         0.0989
     31 H8          4.7520   -4.2623    1.0060 H         1 <0>         0.1246
     32 H9          3.4103   -6.2124    0.3479 H         1 <0>         0.1276
     33 H10         1.0056   -6.2574    0.7169 H         1 <0>         0.1281
     34 H11         1.6336   -1.2051    2.8992 H         1 <0>         0.1172
     35 H12        -0.7731   -1.2668    3.2725 H         1 <0>         0.1186
     36 H13        -2.1007   -3.2252    2.6075 H         1 <0>         0.1198
     37 H14        -1.0452   -5.1475    1.5476 H         1 <0>         0.1256
@<TRIPOS>BOND
     1    1    6 ar
     2    1    2 ar
     3    1   24 1
     4    2    3 ar
     5    2   25 1
     6    3    4 ar
     7    3   26 1
     8    4    5 ar
     9    4    7 1
    10    5    6 ar
    11    5   27 1
    12    6   28 1
    13    7   29 1
    14    7   30 1
    15    7    8 1
    16    8   12 1
    17    8    9 2
    18    9   10 1
    19   10   11 2
    20   11   23 1
    21   11   12 1
    22   12   13 1
    23   13   18 ar
    24   13   14 ar
    25   14   15 ar
    26   14   31 1
    27   15   16 ar
    28   15   32 1
    29   16   17 ar
    30   16   33 1
    31   17   22 ar
    32   17   18 ar
    33   18   19 ar
    34   19   20 ar
    35   19   34 1
    36   20   21 ar
    37   20   35 1
    38   21   22 ar
    39   21   36 1
    40   22   37 1
@<TRIPOS>MOLECULE
ZINC49526379
   31    33     0     0     0
SMALL
USER_CHARGES

@<TRIPOS>ATOM
      1 C1         -0.8795    1.0125   -0.0282 C.3       1 <0>        -0.1874
      2 C2          0.2416   -0.0226    0.0831 C.3       1 <0>         0.1961
      3 H1         -0.1895   -1.0073    0.2636 H         1 <0>         0.0905
      4 C3          1.1523    0.3443    1.2264 C.ar      1 <0>        -0.0944
      5 C4          2.1875    1.2383    1.0257 C.ar      1 <0>        -0.0828
      6 C5          3.0230    1.5752    2.0739 C.ar      1 <0>        -0.1121
      7 C6          2.8233    1.0174    3.3241 C.ar      1 <0>        -0.0319
      8 C7          1.7872    0.1227    3.5244 C.ar      1 <0>        -0.1234
      9 C8          0.9488   -0.2090    2.4768 C.ar      1 <0>        -0.0976
     10 Cl1         3.8727    1.4396    4.6410 Cl        1 <0>        -0.0853
     11 N1          1.0094   -0.0469   -1.1643 N.pl3     1 <0>        -0.4819
     12 C9          1.4340   -1.1578   -1.8591 C.2       1 <0>         0.1872
     13 N2          2.0856   -0.7246   -2.9158 N.2       1 <0>        -0.2593
     14 N3          2.0967    0.5603   -2.9280 N.2       1 <0>        -0.3291
     15 C10         1.4492    1.0284   -1.8853 C.2       1 <0>         0.3717
     16 S1          1.1980    2.7264   -1.4874 S.3       1 <0>        -0.7652
     17 C11         1.2026   -2.5633   -1.4887 C.2       1 <0>        -0.0399
     18 C12         1.5291   -3.7041   -2.1777 C.2       1 <0>        -0.1424
     19 C13         1.2083   -4.9238   -1.6256 C.2       1 <0>        -0.1431
     20 C14         0.5814   -4.9615   -0.4213 C.2       1 <0>        -0.1928
     21 S2          0.4309   -3.2280   -0.0223 S.3       1 <0>         0.0479
     22 H2         -0.4484    1.9972   -0.2087 H         1 <0>         0.1326
     23 H3         -1.5382    0.7471   -0.8551 H         1 <0>         0.0554
     24 H4         -1.4508    1.0306    0.8999 H         1 <0>         0.0625
     25 H5          2.3435    1.6733    0.0496 H         1 <0>         0.1758
     26 H6          3.8319    2.2734    1.9169 H         1 <0>         0.1302
     27 H7          1.6309   -0.3132    4.5001 H         1 <0>         0.1293
     28 H8          0.1370   -0.9038    2.6341 H         1 <0>         0.1274
     29 H9          2.0273   -3.6463   -3.1341 H         1 <0>         0.1427
     30 H10         1.4519   -5.8395   -2.1439 H         1 <0>         0.1348
     31 H11         0.2606   -5.8199    0.1502 H         1 <0>         0.1844
@<TRIPOS>BOND
     1    1    2 1
     2    1   22 1
     3    1   23 1
     4    1   24 1
     5    2    3 1
     6    2    4 1
     7    2   11 1
     8    4    9 ar
     9    4    5 ar
    10    5    6 ar
    11    5   25 1
    12    6    7 ar
    13    6   26 1
    14    7    8 ar
    15    7   10 1
    16    8    9 ar
    17    8   27 1
    18    9   28 1
    19   11   15 1
    20   11   12 1
    21   12   17 1
    22   12   13 2
    23   13   14 1
    24   14   15 2
    25   15   16 1
    26   17   21 1
    27   17   18 2
    28   18   19 1
    29   18   29 1
    30   19   20 2
    31   19   30 1
    32   20   21 1
    33   20   31 1
@<TRIPOS>MOLECULE
ZINC62151929
   34    35     0     0     0
SMALL
USER_CHARGES

@<TRIPOS>ATOM
      1 C1          1.4258    1.0001   -0.2812 C.3       1 <0>        -0.1193
      2 C2          0.7510   -0.3445   -0.1944 C.ar      1 <0>        -0.0415
      3 C3          0.1411   -0.8600   -1.2961 C.ar      1 <0>        -0.1144
      4 C4         -0.4907   -2.1151   -1.2215 C.ar      1 <0>         0.1535
      5 C5         -0.4777   -2.8192    0.0085 C.ar      1 <0>        -0.1048
      6 C6          0.1593   -2.2597    1.1223 C.ar      1 <0>         0.0216
      7 C7          0.7662   -1.0431    1.0118 C.ar      1 <0>        -0.1230
      8 Br1         1.6329   -0.2919    2.5153 Br        1 <0>        -0.0562
      9 C8          0.1786   -2.9996    2.4350 C.3       1 <0>        -0.1592
     10 C9         -1.1158   -4.0850    0.0810 C.ar      1 <0>        -0.0329
     11 C10        -1.7248   -4.5696   -1.0707 C.ar      1 <0>        -0.1785
     12 C11        -1.6896   -3.8100   -2.2383 C.ar      1 <0>         0.1782
     13 N1         -1.0959   -2.6439   -2.2877 N.ar      1 <0>        -0.5001
     14 C12        -2.3536   -4.3463   -3.4803 C.3       1 <0>        -0.0453
     15 C13        -1.3840   -5.2721   -4.2177 C.3       1 <0>        -0.1401
     16 C14        -3.6089   -5.1290   -3.0901 C.3       1 <0>        -0.1488
     17 C15        -1.1316   -4.8608    1.3368 C.2       1 <0>         0.5389
     18 O1         -0.1452   -5.5007    1.6727 O.co2     1 <0>        -0.6689
     19 O2         -2.1312   -4.8635    2.0412 O.co2     1 <0>        -0.6728
     20 H1          2.4659    0.8662   -0.5786 H         1 <0>         0.0746
     21 H2          0.9134    1.6169   -1.0196 H         1 <0>         0.0692
     22 H3          1.3863    1.4900    0.6917 H         1 <0>         0.0753
     23 H4          0.1418   -0.3079   -2.2243 H         1 <0>         0.1356
     24 H5          0.9661   -3.7530    2.4159 H         1 <0>         0.0993
     25 H6          0.3684   -2.2962    3.2458 H         1 <0>         0.0653
     26 H7         -0.7846   -3.4847    2.5929 H         1 <0>         0.1134
     27 H8         -2.2216   -5.5285   -1.0607 H         1 <0>         0.1347
     28 H9         -2.6302   -3.5170   -4.1314 H         1 <0>         0.0877
     29 H10        -1.1074   -6.1014   -3.5666 H         1 <0>         0.0583
     30 H11        -1.8642   -5.6600   -5.1160 H         1 <0>         0.0607
     31 H12        -0.4896   -4.7145   -4.4957 H         1 <0>         0.0570
     32 H13        -4.2997   -4.4694   -2.5648 H         1 <0>         0.0584
     33 H14        -4.0892   -5.5169   -3.9884 H         1 <0>         0.0607
     34 H15        -3.3323   -5.9583   -2.4390 H         1 <0>         0.0635
@<TRIPOS>BOND
     1    1    2 1
     2    1   20 1
     3    1   21 1
     4    1   22 1
     5    2    7 ar
     6    2    3 ar
     7    3    4 ar
     8    3   23 1
     9    4   13 ar
    10    4    5 ar
    11    5    6 ar
    12    5   10 ar
    13    6    7 ar
    14    6    9 1
    15    7    8 1
    16    9   24 1
    17    9   25 1
    18    9   26 1
    19   10   11 ar
    20   10   17 1
    21   11   12 ar
    22   11   27 1
    23   12   13 ar
    24   12   14 1
    25   14   15 1
    26   14   16 1
    27   14   28 1
    28   15   29 1
    29   15   30 1
    30   15   31 1
    31   16   32 1
    32   16   33 1
    33   16   34 1
    34   17   18 2
    35   17   19 1
@<TRIPOS>MOLECULE
ZINC65740730
   50    51     0     0     0
SMALL
USER_CHARGES

@<TRIPOS>ATOM
      1 C1         -4.6838    1.4569   -3.8043 C.3       1 <0>        -0.1211
      2 C2         -4.7678   -0.0342   -4.0055 C.2       1 <0>        -0.0658
      3 C3         -5.9568   -0.6775   -3.8416 C.2       1 <0>        -0.1560
      4 C4         -6.0596   -2.0523   -4.1313 C.2       1 <0>         0.4535
      5 O1         -4.9677   -2.7523   -4.4365 O.co2     1 <0>        -0.6884
      6 O2         -7.2487   -2.6526   -4.1001 O.co2     1 <0>        -0.7063
      7 C5         -3.6170   -0.7621   -4.3627 C.2       1 <0>        -0.1250
      8 C6         -2.4100   -0.1425   -4.4120 C.2       1 <0>        -0.1698
      9 C7         -1.2506   -0.8759   -4.7719 C.2       1 <0>        -0.0608
     10 C8         -0.0701   -0.2570   -4.8629 C.2       1 <0>        -0.1963
     11 C9          1.1901   -1.0617   -5.0513 C.3       1 <0>        -0.0985
     12 C10         0.0013    1.2459   -4.7771 C.3       1 <0>         0.1500
     13 H1          0.0820    1.5603   -3.7366 H         1 <0>         0.0964
     14 C11         1.1837    1.7611   -5.5738 C.2       1 <0>        -0.1721
     15 C12         0.7403    2.2061   -6.7064 C.2       1 <0>        -0.1312
     16 C13        -0.7712    2.0069   -6.7586 C.3       1 <0>         0.1301
     17 O3         -1.1661    1.8374   -5.3889 O.3       1 <0>        -0.3343
     18 C14        -1.3364    3.2965   -7.3562 C.3       1 <0>        -0.1087
     19 C15        -0.8171    3.4968   -8.7742 C.3       1 <0>        -0.1113
     20 C16         0.5039    2.8023   -9.0577 C.3       1 <0>        -0.1168
     21 C17         1.4601    2.8671   -7.8599 C.3       1 <0>        -0.0054
     22 C18         1.7747    4.3246   -7.5170 C.3       1 <0>        -0.1357
     23 C19         2.7512    2.1097   -8.1768 C.3       1 <0>        -0.1371
     24 C20        -1.1423    0.7819   -7.5969 C.3       1 <0>        -0.1645
     25 H2         -4.4475    1.6702   -2.7618 H         1 <0>         0.0615
     26 H3         -3.9030    1.8666   -4.4450 H         1 <0>         0.0708
     27 H4         -5.6403    1.9125   -4.0606 H         1 <0>         0.0572
     28 H5         -6.8210   -0.1337   -3.4896 H         1 <0>         0.1081
     29 H6         -3.6944   -1.8134   -4.5976 H         1 <0>         0.2039
     30 H7         -2.3326    0.9088   -4.1771 H         1 <0>         0.1193
     31 H8         -1.3220   -1.9347   -4.9725 H         1 <0>         0.1088
     32 H9          1.4310   -1.1164   -6.1129 H         1 <0>         0.0561
     33 H10         2.0104   -0.5825   -4.5168 H         1 <0>         0.0567
     34 H11         1.0404   -2.0680   -4.6603 H         1 <0>         0.0593
     35 H12         2.2149    1.7579   -5.2530 H         1 <0>         0.1365
     36 H13        -2.4247    3.2383   -7.3756 H         1 <0>         0.0685
     37 H14        -1.0344    4.1426   -6.7388 H         1 <0>         0.0659
     38 H15        -1.5638    3.1198   -9.4731 H         1 <0>         0.0621
     39 H16        -0.6916    4.5653   -8.9496 H         1 <0>         0.0605
     40 H17         0.3097    1.7574   -9.2995 H         1 <0>         0.0723
     41 H18         0.9779    3.2800   -9.9152 H         1 <0>         0.0627
     42 H19         2.4092    4.3606   -6.6314 H         1 <0>         0.0543
     43 H20         2.2931    4.7912   -8.3546 H         1 <0>         0.0570
     44 H21         0.8459    4.8602   -7.3206 H         1 <0>         0.0603
     45 H22         2.5121    1.0810   -8.4465 H         1 <0>         0.0577
     46 H23         3.2617    2.5943   -9.0091 H         1 <0>         0.0571
     47 H24         3.3995    2.1144   -7.3006 H         1 <0>         0.0562
     48 H25        -0.7497   -0.1166   -7.1209 H         1 <0>         0.0710
     49 H26        -2.2272    0.7086   -7.6727 H         1 <0>         0.0636
     50 H27        -0.7143    0.8811   -8.5945 H         1 <0>         0.0674
@<TRIPOS>BOND
     1    1    2 1
     2    1   25 1
     3    1   26 1
     4    1   27 1
     5    2    3 2
     6    2    7 1
     7    3    4 1
     8    3   28 1
     9    4    5 2
    10    4    6 1
    11    7    8 2
    12    7   29 1
    13    8    9 1
    14    8   30 1
    15    9   10 2
    16    9   31 1
    17   10   11 1
    18   10   12 1
    19   11   32 1
    20   11   33 1
    21   11   34 1
    22   12   13 1
    23   12   17 1
    24   12   14 1
    25   14   15 2
    26   14   35 1
    27   15   21 1
    28   15   16 1
    29   16   17 1
    30   16   18 1
    31   16   24 1
    32   18   19 1
    33   18   36 1
    34   18   37 1
    35   19   20 1
    36   19   38 1
    37   19   39 1
    38   20   21 1
    39   20   40 1
    40   20   41 1
    41   21   22 1
    42   21   23 1
    43   22   42 1
    44   22   43 1
    45   22   44 1
    46   23   45 1
    47   23   46 1
    48   23   47 1
    49   24   48 1
    50   24   49 1
    51   24   50 1
@<TRIPOS>MOLECULE
ZINC01704272
   62    63     0     0     0
SMALL
USER_CHARGES
N'-[6-chloro-5-(2-methyl-1-phenyl-prop-1-enyl)-pyrimidin-4-yl]-N,N-diethyl-pentane-1,4-diamine
@<TRIPOS>ATOM
      1 C1         -1.5159   -0.8390    5.6923 C.3       1 <0>        -0.1855
      2 C2         -1.9274    0.6029    5.9961 C.3       1 <0>        -0.0145
      3 C3          0.0012    0.9356    7.4218 C.3       1 <0>        -0.0127
      4 C4         -0.7869    1.2912    8.6841 C.3       1 <0>        -0.1892
      5 C5          0.1442    1.4322    5.0563 C.3       1 <0>        -0.0120
      6 C6         -0.5632    2.1625    3.9130 C.3       1 <0>        -0.1548
      7 C7          0.3441    2.1816    2.6812 C.3       1 <0>        -0.1264
      8 C8         -0.3634    2.9118    1.5379 C.3       1 <0>         0.1518
      9 H1         -1.3333    2.4489    1.3562 H         1 <0>         0.0983
     10 C9          0.4896    2.8230    0.2709 C.3       1 <0>        -0.1672
     11 N1         -0.5539    4.3184    1.9007 N.pl3     1 <0>        -0.7037
     12 C10        -1.5753    5.0500    1.3214 C.ar      1 <0>         0.4585
     13 C11        -1.7697    6.4016    1.6606 C.ar      1 <0>        -0.1852
     14 C12        -2.8154    7.0893    1.0441 C.ar      1 <0>         0.2583
     15 N2         -3.5787    6.4489    0.1704 N.ar      1 <0>        -0.5485
     16 C13        -3.3645    5.1815   -0.1211 C.ar      1 <0>         0.3585
     17 N3         -2.3870    4.4905    0.4304 N.ar      1 <0>        -0.5700
     18 Cl1        -3.1117    8.7590    1.4155 Cl        1 <0>        -0.0030
     19 C14        -0.8896    7.0749    2.6444 C.2       1 <0>        -0.0838
     20 C15         0.2222    7.6968    2.2325 C.2       1 <0>        -0.0597
     21 C16         1.1172    8.3816    3.2330 C.3       1 <0>        -0.1320
     22 C17         0.5787    7.7119    0.7683 C.3       1 <0>        -0.1261
     23 C18        -1.2405    7.0601    4.0853 C.ar      1 <0>        -0.0240
     24 C19        -1.2651    5.8559    4.7869 C.ar      1 <0>        -0.1244
     25 C20        -1.5881    5.8486    6.1286 C.ar      1 <0>        -0.1264
     26 C21        -1.8963    7.0322    6.7749 C.ar      1 <0>        -0.1161
     27 C22        -1.8786    8.2296    6.0825 C.ar      1 <0>        -0.1100
     28 C23        -1.5524    8.2495    4.7416 C.ar      1 <0>        -0.0951
     29 H2         -2.4052   -1.4356    5.4892 H         1 <0>         0.1061
     30 H3         -0.8614   -0.8541    4.8208 H         1 <0>         0.0806
     31 H4         -0.9878   -1.2546    6.5505 H         1 <0>         0.0804
     32 H5         -2.5630    0.6205    6.8814 H         1 <0>         0.1292
     33 H6         -2.4758    1.0108    5.1470 H         1 <0>         0.1284
     34 H7          0.1217   -0.1461    7.3613 H         1 <0>         0.1332
     35 H8          0.9823    1.4089    7.4605 H         1 <0>         0.1286
     36 H9         -0.9050    2.3730    8.7459 H         1 <0>         0.0799
     37 H10        -1.7690    0.8201    8.6441 H         1 <0>         0.0796
     38 H11        -0.2479    0.9338    9.5616 H         1 <0>         0.1067
     39 H12         0.3654    0.4092    4.7521 H         1 <0>         0.1356
     40 H13         1.0734    1.9486    5.2974 H         1 <0>         0.1296
     41 H14        -0.7844    3.1856    4.2172 H         1 <0>         0.0855
     42 H15        -1.4924    1.6462    3.6719 H         1 <0>         0.0911
     43 H16         0.5653    1.1585    2.3771 H         1 <0>         0.0947
     44 H17         1.2733    2.6979    2.9223 H         1 <0>         0.0807
     45 H18         0.6313    1.7765    0.0009 H         1 <0>         0.0694
     46 H19         1.4595    3.2859    0.4526 H         1 <0>         0.0578
     47 H20        -0.0144    3.3433   -0.5436 H         1 <0>         0.0683
     48 H21         0.0361    4.7367    2.5471 H         1 <0>         0.4097
     49 H22        -4.0084    4.6944   -0.8384 H         1 <0>         0.2069
     50 H23         0.6999    8.2652    4.2332 H         1 <0>         0.0727
     51 H24         2.1101    7.9331    3.1991 H         1 <0>         0.0726
     52 H25         1.1890    9.4418    2.9904 H         1 <0>         0.0777
     53 H26        -0.1804    7.1704    0.2039 H         1 <0>         0.0597
     54 H27         0.6267    8.7425    0.4167 H         1 <0>         0.0788
     55 H28         1.5478    7.2338    0.6254 H         1 <0>         0.0735
     56 H29        -1.0287    4.9308    4.2823 H         1 <0>         0.1119
     57 H30        -1.6039    4.9167    6.6741 H         1 <0>         0.1084
     58 H31        -2.1522    7.0213    7.8241 H         1 <0>         0.1237
     59 H32        -2.1201    9.1506    6.5921 H         1 <0>         0.1285
     60 H33        -1.5392    9.1848    4.2019 H         1 <0>         0.1266
     61 N4         -0.7354    1.4409    6.2441 N.4       1 <0>        -0.3966
     62 H34        -1.0377    2.4047    6.4282 H         1 <0>         0.4254
@<TRIPOS>BOND
     1    1    2 1
     2    1   29 1
     3    1   30 1
     4    1   31 1
     5    2   32 1
     6    2   33 1
     7    2   61 1
     8    3    4 1
     9    3   34 1
    10    3   35 1
    11    3   61 1
    12    4   36 1
    13    4   37 1
    14    4   38 1
    15    5    6 1
    16    5   39 1
    17    5   40 1
    18    5   61 1
    19    6    7 1
    20    6   41 1
    21    6   42 1
    22    7    8 1
    23    7   43 1
    24    7   44 1
    25    8    9 1
    26    8   10 1
    27    8   11 1
    28   10   45 1
    29   10   46 1
    30   10   47 1
    31   11   12 1
    32   11   48 1
    33   12   17 ar
    34   12   13 ar
    35   13   14 ar
    36   13   19 1
    37   14   15 ar
    38   14   18 1
    39   15   16 ar
    40   16   17 ar
    41   16   49 1
    42   19   20 2
    43   19   23 1
    44   20   21 1
    45   20   22 1
    46   21   50 1
    47   21   51 1
    48   21   52 1
    49   22   53 1
    50   22   54 1
    51   22   55 1
    52   23   28 ar
    53   23   24 ar
    54   24   25 ar
    55   24   56 1
    56   25   26 ar
    57   25   57 1
    58   26   27 ar
    59   26   58 1
    60   27   28 ar
    61   27   59 1
    62   28   60 1
    63   61   62 1
@<TRIPOS>MOLECULE
ZINC08992544
   55    57     0     0     0
SMALL
USER_CHARGES
7-(diisobutylaminomethyl)-6-hydroxy-2-(2-thienylmethylene)benzofuran-3-one
@<TRIPOS>ATOM
      1 C1          1.2602    0.8008   -1.5323 C.3       1 <0>        -0.1508
      2 C2          0.8366    1.7936   -0.4479 C.3       1 <0>        -0.1255
      3 C3          0.2283    3.0353   -1.1028 C.3       1 <0>        -0.1785
      4 C4         -0.2013    1.1387    0.4657 C.3       1 <0>        -0.0078
      5 C5         -1.9082    1.6748    2.0972 C.3       1 <0>         0.0516
      6 C6         -3.0476    1.8611    1.1286 C.ar      1 <0>        -0.2083
      7 C7         -3.6516    3.1016    0.9981 C.ar      1 <0>         0.1983
      8 C8         -4.7016    3.2867    0.1031 C.ar      1 <0>        -0.1746
      9 C9         -5.1557    2.2410   -0.6506 C.ar      1 <0>         0.0379
     10 C10        -4.5611    0.9858   -0.5260 C.ar      1 <0>        -0.2603
     11 C11        -3.4972    0.7892    0.3703 C.ar      1 <0>         0.1774
     12 O1         -3.1038   -0.5008    0.3018 O.3       1 <0>        -0.2076
     13 C12        -3.8425   -1.1967   -0.5941 C.2       1 <0>        -0.0817
     14 C13        -3.6934   -2.5194   -0.8941 C.2       1 <0>         0.0808
     15 C14        -2.6975   -3.2829   -0.2454 C.2       1 <0>        -0.1987
     16 C15        -2.3823   -4.6295   -0.4032 C.2       1 <0>        -0.0799
     17 C16        -1.3559   -5.1218    0.3621 C.2       1 <0>        -0.1741
     18 C17        -0.7083   -4.2893    1.2205 C.2       1 <0>        -0.1795
     19 S1         -1.5104   -2.7708    0.9841 S.3       1 <0>         0.1405
     20 C18        -4.7989   -0.3182   -1.1693 C.2       1 <0>         0.4124
     21 O2         -5.6374   -0.5859   -2.0141 O.2       1 <0>        -0.4058
     22 O3         -3.2123    4.1461    1.7458 O.3       1 <0>        -0.4807
     23 C19         0.3854    2.3507    2.4780 C.3       1 <0>        -0.0082
     24 C20         1.3019    3.4823    2.0083 C.3       1 <0>        -0.1362
     25 C21         0.5133    4.7927    1.9652 C.3       1 <0>        -0.1666
     26 C22         2.4752    3.6249    2.9799 C.3       1 <0>        -0.1504
     27 H1          0.3892    0.5117   -2.1205 H         1 <0>         0.0661
     28 H2          1.9996    1.2674   -2.1833 H         1 <0>         0.0784
     29 H3          1.6936   -0.0838   -1.0658 H         1 <0>         0.0687
     30 H4          1.7075    2.0827    0.1402 H         1 <0>         0.1047
     31 H5         -0.0112    3.7708   -0.3348 H         1 <0>         0.0504
     32 H6          0.9438    3.4632   -1.8050 H         1 <0>         0.0908
     33 H7         -0.6811    2.7567   -1.6353 H         1 <0>         0.0721
     34 H8         -1.0521    0.8074   -0.1297 H         1 <0>         0.1244
     35 H9          0.2464    0.2812    0.9681 H         1 <0>         0.1355
     36 H10        -1.8307    0.6221    2.3688 H         1 <0>         0.1425
     37 H11        -2.0918    2.2685    2.9927 H         1 <0>         0.1476
     38 H12        -5.1620    4.2590    0.0073 H         1 <0>         0.1581
     39 H13        -5.9730    2.3865   -1.3414 H         1 <0>         0.1547
     40 H14        -4.3368   -2.9827   -1.6274 H         1 <0>         0.1843
     41 H15        -2.9215   -5.2581   -1.0963 H         1 <0>         0.1518
     42 H16        -1.0651   -6.1589    0.2835 H         1 <0>         0.1454
     43 H17         0.1113   -4.5180    1.8857 H         1 <0>         0.1926
     44 H18        -2.5099    4.6618    1.3268 H         1 <0>         0.3971
     45 H19        -0.0821    2.6300    3.4222 H         1 <0>         0.1337
     46 H20         0.9717    1.4425    2.6176 H         1 <0>         0.1345
     47 H21         1.6807    3.2533    1.0123 H         1 <0>         0.1054
     48 H22         0.2092    5.0671    2.9753 H         1 <0>         0.0800
     49 H23         1.1403    5.5805    1.5478 H         1 <0>         0.0870
     50 H24        -0.3715    4.6639    1.3418 H         1 <0>         0.0395
     51 H25         3.0370    2.6913    3.0106 H         1 <0>         0.0678
     52 H26         3.1281    4.4310    2.6453 H         1 <0>         0.0778
     53 H27         2.0963    3.8539    3.9760 H         1 <0>         0.0690
     54 N1         -0.6597    2.1367    1.4549 N.4       1 <0>        -0.3990
     55 H28        -0.8414    3.0249    0.9730 H         1 <0>         0.4155
@<TRIPOS>BOND
     1    1    2 1
     2    1   27 1
     3    1   28 1
     4    1   29 1
     5    2    3 1
     6    2    4 1
     7    2   30 1
     8    3   31 1
     9    3   32 1
    10    3   33 1
    11    4   34 1
    12    4   35 1
    13    4   54 1
    14    5    6 1
    15    5   36 1
    16    5   37 1
    17    5   54 1
    18    6   11 ar
    19    6    7 ar
    20    7    8 ar
    21    7   22 1
    22    8    9 ar
    23    8   38 1
    24    9   10 ar
    25    9   39 1
    26   10   20 1
    27   10   11 ar
    28   11   12 1
    29   12   13 1
    30   13   14 2
    31   13   20 1
    32   14   15 1
    33   14   40 1
    34   15   19 1
    35   15   16 2
    36   16   17 1
    37   16   41 1
    38   17   18 2
    39   17   42 1
    40   18   19 1
    41   18   43 1
    42   20   21 2
    43   22   44 1
    44   23   24 1
    45   23   45 1
    46   23   46 1
    47   23   54 1
    48   24   25 1
    49   24   26 1
    50   24   47 1
    51   25   48 1
    52   25   49 1
    53   25   50 1
    54   26   51 1
    55   26   52 1
    56   26   53 1
    57   54   55 1
@<TRIPOS>MOLECULE
ZINC35745327
   62    63     0     0     0
SMALL
USER_CHARGES

@<TRIPOS>ATOM
      1 C1         -0.2939    2.6881    3.3237 C.3       1 <0>        -0.1549
      2 C2         -0.3545    1.2303    2.8634 C.3       1 <0>        -0.1199
      3 C3          0.0243    1.1466    1.3834 C.3       1 <0>        -0.1090
      4 C4         -0.0363   -0.3113    0.9230 C.3       1 <0>         0.2106
      5 C5          0.4616   -0.4115   -0.5202 C.3       1 <0>        -0.1406
      6 C6         -0.4463    0.4166   -1.4316 C.3       1 <0>        -0.1232
      7 C7          0.0516    0.3163   -2.8749 C.3       1 <0>        -0.1551
      8 C8          0.8359   -1.1564    1.8152 C.2       1 <0>         0.0258
      9 C9          0.5193   -2.3684    2.3053 C.2       1 <0>        -0.2115
     10 C10         1.6180   -2.7941    3.0867 C.2       1 <0>        -0.1404
     11 C11         2.5403   -1.8167    3.0274 C.2       1 <0>        -0.1014
     12 O1          2.0635   -0.8298    2.2512 O.3       1 <0>        -0.1530
     13 C12         3.8830   -1.8293    3.7114 C.3       1 <0>         0.0872
     14 N1          4.8308   -2.6201    2.9149 N.4       1 <0>        -0.3881
     15 C13         6.0905   -2.7666    3.6563 C.3       1 <0>         0.0413
     16 C14         7.0110   -3.6932    2.9045 C.ar      1 <0>        -0.1281
     17 C15         6.8916   -5.0619    3.0601 C.ar      1 <0>        -0.1074
     18 C16         7.7352   -5.9131    2.3712 C.ar      1 <0>        -0.0791
     19 C17         8.6994   -5.3967    1.5262 C.ar      1 <0>        -0.1212
     20 C18         8.8199   -4.0265    1.3696 C.ar      1 <0>         0.1128
     21 C19         7.9702   -3.1749    2.0557 C.ar      1 <0>        -0.1347
     22 F1          9.7623   -3.5206    0.5443 F         1 <0>        -0.1244
     23 C20         5.0892   -1.9366    1.6406 C.3       1 <0>        -0.0172
     24 C21         4.0443   -2.3678    0.6095 C.3       1 <0>        -0.1229
     25 C22         4.1932   -1.5175   -0.6537 C.3       1 <0>        -0.1482
     26 C23         4.2520   -3.8425    0.2590 C.3       1 <0>        -0.1633
     27 O2         -1.3851   -0.7778    0.9950 O.3       1 <0>        -0.5258
     28 H1          0.7172    3.0711    3.1852 H         1 <0>         0.0524
     29 H2         -0.9919    3.2841    2.7358 H         1 <0>         0.0589
     30 H3         -0.5637    2.7477    4.3781 H         1 <0>         0.0572
     31 H4          0.3435    0.6343    3.4513 H         1 <0>         0.0526
     32 H5         -1.3655    0.8472    3.0019 H         1 <0>         0.0726
     33 H6         -0.6737    1.7426    0.7954 H         1 <0>         0.0892
     34 H7          1.0353    1.5296    1.2449 H         1 <0>         0.0803
     35 H8          1.4812   -0.0307   -0.5800 H         1 <0>         0.0768
     36 H9          0.4437   -1.4536   -0.8392 H         1 <0>         0.0704
     37 H10        -1.4659    0.0358   -1.3718 H         1 <0>         0.0738
     38 H11        -0.4284    1.4587   -1.1127 H         1 <0>         0.0690
     39 H12         0.0337   -0.7258   -3.1939 H         1 <0>         0.0538
     40 H13        -0.5952    0.9063   -3.5242 H         1 <0>         0.0610
     41 H14         1.0712    0.6971   -2.9347 H         1 <0>         0.0532
     42 H15        -0.3984   -2.9119    2.1351 H         1 <0>         0.1610
     43 H16         1.7007   -3.7251    3.6278 H         1 <0>         0.1601
     44 H17         4.2520   -0.8081    3.8066 H         1 <0>         0.1465
     45 H18         3.7821   -2.2730    4.7019 H         1 <0>         0.1577
     46 H19         6.5649   -1.7911    3.7630 H         1 <0>         0.1420
     47 H20         5.8851   -3.1807    4.6434 H         1 <0>         0.1454
     48 H21         6.1389   -5.4663    3.7207 H         1 <0>         0.1388
     49 H22         7.6410   -6.9820    2.4935 H         1 <0>         0.1480
     50 H23         9.3589   -6.0619    0.9886 H         1 <0>         0.1498
     51 H24         8.0603   -2.1059    1.9309 H         1 <0>         0.1455
     52 H25         5.0305   -0.8582    1.7883 H         1 <0>         0.1313
     53 H26         6.0841   -2.2005    1.2819 H         1 <0>         0.1333
     54 H27         3.0459   -2.2301    1.0246 H         1 <0>         0.0982
     55 H28         5.1602   -1.7182   -1.1149 H         1 <0>         0.0672
     56 H29         3.3973   -1.7669   -1.3554 H         1 <0>         0.0751
     57 H30         4.1282   -0.4617   -0.3908 H         1 <0>         0.0660
     58 H31         5.2906   -4.0047   -0.0295 H         1 <0>         0.0691
     59 H32         4.0154   -4.4589    1.1263 H         1 <0>         0.0503
     60 H33         3.5980   -4.1147   -0.5694 H         1 <0>         0.0815
     61 H34        -1.4987   -1.6971    0.7172 H         1 <0>         0.3815
     62 H35         4.4390   -3.5322    2.7340 H         1 <0>         0.4221
@<TRIPOS>BOND
     1    1    2 1
     2    1   28 1
     3    1   29 1
     4    1   30 1
     5    2    3 1
     6    2   31 1
     7    2   32 1
     8    3    4 1
     9    3   33 1
    10    3   34 1
    11    4    5 1
    12    4    8 1
    13    4   27 1
    14    5    6 1
    15    5   35 1
    16    5   36 1
    17    6    7 1
    18    6   37 1
    19    6   38 1
    20    7   39 1
    21    7   40 1
    22    7   41 1
    23    8   12 1
    24    8    9 2
    25    9   10 1
    26    9   42 1
    27   10   11 2
    28   10   43 1
    29   11   12 1
    30   11   13 1
    31   13   14 1
    32   13   44 1
    33   13   45 1
    34   14   15 1
    35   14   23 1
    36   14   62 1
    37   15   16 1
    38   15   46 1
    39   15   47 1
    40   16   21 ar
    41   16   17 ar
    42   17   18 ar
    43   17   48 1
    44   18   19 ar
    45   18   49 1
    46   19   20 ar
    47   19   50 1
    48   20   21 ar
    49   20   22 1
    50   21   51 1
    51   23   24 1
    52   23   52 1
    53   23   53 1
    54   24   25 1
    55   24   26 1
    56   24   54 1
    57   25   55 1
    58   25   56 1
    59   25   57 1
    60   26   58 1
    61   26   59 1
    62   26   60 1
    63   27   61 1
@<TRIPOS>MOLECULE
ZINC40741913
   54    55     0     0     0
SMALL
USER_CHARGES

@<TRIPOS>ATOM
      1 C1         -0.0187    1.5258    0.0104 C.3       1 <0>        -0.1752
      2 C2          0.0021   -0.0041    0.0020 C.3       1 <0>        -0.1492
      3 C3         -1.4333   -0.5336    0.0129 C.3       1 <0>         0.0242
      4 H1         -1.9701   -0.1109    0.8621 H         1 <0>         0.1409
      5 C4         -1.4133   -2.0590    0.1302 C.3       1 <0>        -0.1858
      6 N1         -2.1072   -0.1473   -1.2339 N.4       1 <0>        -0.5091
      7 C5         -3.5184   -0.5509   -1.1732 C.3       1 <0>         0.0441
      8 C6         -4.2097   -0.1546   -2.4522 C.ar      1 <0>        -0.1186
      9 C7         -4.8039    1.0895   -2.5582 C.ar      1 <0>        -0.1780
     10 C8         -5.4405    1.4558   -3.7330 C.ar      1 <0>         0.1376
     11 C9         -5.4800    0.5697   -4.8052 C.ar      1 <0>         0.1099
     12 C10        -4.8821   -0.6759   -4.6931 C.ar      1 <0>        -0.0227
     13 C11        -4.2435   -1.0332   -3.5186 C.ar      1 <0>        -0.1122
     14 Cl1        -4.9292   -1.7849   -6.0278 Cl        1 <0>        -0.0163
     15 O1         -6.1041    0.9248   -5.9604 O.3       1 <0>        -0.3078
     16 C12        -5.3102    1.5789   -6.9522 C.3       1 <0>         0.1173
     17 C13        -6.1650    1.8938   -8.1527 C.ar      1 <0>        -0.0980
     18 C14        -7.5042    1.5503   -8.1568 C.ar      1 <0>        -0.0910
     19 C15        -8.2883    1.8390   -9.2578 C.ar      1 <0>        -0.1239
     20 C16        -7.7335    2.4717  -10.3548 C.ar      1 <0>        -0.1094
     21 C17        -6.3949    2.8159  -10.3503 C.ar      1 <0>        -0.1178
     22 C18        -5.6116    2.5309   -9.2472 C.ar      1 <0>        -0.0787
     23 C19        -4.1533    2.9109   -9.2402 C.3       1 <0>        -0.1202
     24 O2         -6.0260    2.6788   -3.8380 O.3       1 <0>        -0.2901
     25 C20        -5.9467    3.5361   -2.6974 C.3       1 <0>         0.0514
     26 C21        -6.6562    4.8570   -3.0019 C.3       1 <0>        -0.1575
     27 H2          1.0039    1.9031    0.0027 H         1 <0>         0.0845
     28 H3         -0.5459    1.8868   -0.8726 H         1 <0>         0.0499
     29 H4         -0.5289    1.8773    0.9072 H         1 <0>         0.0725
     30 H5          0.5123   -0.3556   -0.8948 H         1 <0>         0.0888
     31 H6          0.5293   -0.3651    0.8851 H         1 <0>         0.1138
     32 H7         -2.4359   -2.4363    0.1380 H         1 <0>         0.0829
     33 H8         -0.8764   -2.4817   -0.7190 H         1 <0>         0.0832
     34 H9         -0.9132   -2.3457    1.0553 H         1 <0>         0.1076
     35 H10        -2.0484    0.8531   -1.3520 H         1 <0>         0.4253
     36 H11        -3.5820   -1.6316   -1.0456 H         1 <0>         0.1458
     37 H12        -4.0018   -0.0565   -0.3306 H         1 <0>         0.1424
     38 H13        -4.7721    1.7757   -1.7248 H         1 <0>         0.1469
     39 H14        -3.7744   -2.0023   -3.4334 H         1 <0>         0.1492
     40 H15        -4.9055    2.5040   -6.5416 H         1 <0>         0.0705
     41 H16        -4.4908    0.9251   -7.2510 H         1 <0>         0.0693
     42 H17        -7.9377    1.0561   -7.2999 H         1 <0>         0.1299
     43 H18        -9.3343    1.5701   -9.2614 H         1 <0>         0.1251
     44 H19        -8.3459    2.6967  -11.2154 H         1 <0>         0.1257
     45 H20        -5.9614    3.3098  -11.2074 H         1 <0>         0.1265
     46 H21        -3.5622    2.0909   -9.6480 H         1 <0>         0.0737
     47 H22        -4.0072    3.8024   -9.8500 H         1 <0>         0.0728
     48 H23        -3.8357    3.1141   -8.2175 H         1 <0>         0.0616
     49 H24        -6.4269    3.0535   -1.8462 H         1 <0>         0.0680
     50 H25        -4.9005    3.7314   -2.4618 H         1 <0>         0.0638
     51 H26        -6.5957    5.5109   -2.1320 H         1 <0>         0.0859
     52 H27        -6.1760    5.3395   -3.8532 H         1 <0>         0.0707
     53 H28        -7.7023    4.6616   -3.2376 H         1 <0>         0.0730
     54 H29        -1.6598   -0.6049   -2.0139 H         1 <0>         0.4266
@<TRIPOS>BOND
     1    1    2 1
     2    1   27 1
     3    1   28 1
     4    1   29 1
     5    2    3 1
     6    2   30 1
     7    2   31 1
     8    3    4 1
     9    3    5 1
    10    3    6 1
    11    5   32 1
    12    5   33 1
    13    5   34 1
    14    6    7 1
    15    6   35 1
    16    6   54 1
    17    7    8 1
    18    7   36 1
    19    7   37 1
    20    8   13 ar
    21    8    9 ar
    22    9   10 ar
    23    9   38 1
    24   10   11 ar
    25   10   24 1
    26   11   12 ar
    27   11   15 1
    28   12   13 ar
    29   12   14 1
    30   13   39 1
    31   15   16 1
    32   16   17 1
    33   16   40 1
    34   16   41 1
    35   17   22 ar
    36   17   18 ar
    37   18   19 ar
    38   18   42 1
    39   19   20 ar
    40   19   43 1
    41   20   21 ar
    42   20   44 1
    43   21   22 ar
    44   21   45 1
    45   22   23 1
    46   23   46 1
    47   23   47 1
    48   23   48 1
    49   24   25 1
    50   25   26 1
    51   25   49 1
    52   25   50 1
    53   26   51 1
    54   26   52 1
    55   26   53 1
@<TRIPOS>MOLECULE
ZINC63820531
   50    53     0     0     0
SMALL
USER_CHARGES

@<TRIPOS>ATOM
      1 C1         -0.0163    1.3482    0.0095 C.ar      1 <0>        -0.1483
      2 C2          1.1658    2.1014    0.0022 C.ar      1 <0>         0.0566
      3 C3          2.3912    1.5352   -0.0125 C.ar      1 <0>        -0.2092
      4 C4          2.5288    0.1198   -0.0218 C.ar      1 <0>         0.3307
      5 N1          3.5868   -0.6543   -0.0369 N.pl3     1 <0>        -0.5813
      6 C5          3.1432   -2.0528   -0.0408 C.3       1 <0>         0.0539
      7 C6          1.6315   -2.0084   -0.0255 C.2       1 <0>         0.0747
      8 C7          1.2951   -0.6984   -0.0144 C.ar      1 <0>        -0.1582
      9 C8          0.0021   -0.0041    0.0020 C.ar      1 <0>        -0.0125
     10 C9          0.6905   -3.1856   -0.0239 C.3       1 <0>        -0.0300
     11 H1         -0.3390   -2.8277   -0.0118 H         1 <0>         0.1307
     12 C10         0.9474   -4.0421    1.2175 C.3       1 <0>         0.1299
     13 N2         -0.0445   -5.1184    1.2820 N.am      1 <0>        -0.7339
     14 C11        -0.0135   -6.0033    2.2980 C.2       1 <0>         0.5199
     15 O1          0.8355   -5.9087    3.1590 O.2       1 <0>        -0.5291
     16 C12        -1.0337   -7.1105    2.3643 C.3       1 <0>        -0.1348
     17 C13        -0.7769   -7.9670    3.6058 C.3       1 <0>        -0.0469
     18 C14        -1.7972   -9.0741    3.6721 C.2       1 <0>        -0.1262
     19 C15        -2.9962   -8.8844    4.3331 C.2       1 <0>        -0.1579
     20 C16        -3.8922   -9.9007    4.3742 C.2       1 <0>        -0.1672
     21 S1         -3.0440  -11.1779    3.4596 S.3       1 <0>         0.0405
     22 C17        -1.5551  -10.2690    3.0796 C.2       1 <0>        -0.1731
     23 C18         0.9199   -4.0138   -1.2619 C.ar      1 <0>        -0.0977
     24 C19         2.1583   -4.5827   -1.4933 C.ar      1 <0>        -0.1109
     25 C20         2.3689   -5.3423   -2.6287 C.ar      1 <0>        -0.1015
     26 C21         1.3412   -5.5337   -3.5335 C.ar      1 <0>        -0.0880
     27 C22         0.1027   -4.9654   -3.3033 C.ar      1 <0>        -0.0961
     28 C23        -0.1103   -4.2096   -2.1640 C.ar      1 <0>        -0.0258
     29 Cl1        -1.6677   -3.5009   -1.8706 Cl        1 <0>        -0.0524
     30 H2         -0.9665    1.8612    0.0259 H         1 <0>         0.1593
     31 H3          1.0933    3.1789    0.0083 H         1 <0>         0.1625
     32 H4          3.2717    2.1606   -0.0175 H         1 <0>         0.1623
     33 H5          3.4952   -2.5561   -0.9413 H         1 <0>         0.1748
     34 H6          3.5129   -2.5667    0.8465 H         1 <0>         0.1768
     35 H7         -0.9210   -0.5647    0.0081 H         1 <0>         0.1593
     36 H8          1.9473   -4.4724    1.1616 H         1 <0>         0.0814
     37 H9          0.8684   -3.4213    2.1100 H         1 <0>         0.0847
     38 H10        -0.7234   -5.1941    0.5934 H         1 <0>         0.4049
     39 H11        -2.0337   -6.6802    2.4203 H         1 <0>         0.0987
     40 H12        -0.9547   -7.7313    1.4719 H         1 <0>         0.0982
     41 H13         0.2230   -8.3973    3.5499 H         1 <0>         0.0801
     42 H14        -0.8559   -7.3462    4.4982 H         1 <0>         0.0800
     43 H15        -3.2157   -7.9406    4.8101 H         1 <0>         0.1333
     44 H16        -4.8662   -9.9303    4.8397 H         1 <0>         0.1869
     45 H17        -0.6865  -10.5886    2.5231 H         1 <0>         0.1843
     46 H18         2.9616   -4.4333   -0.7871 H         1 <0>         0.1311
     47 H19         3.3367   -5.7863   -2.8093 H         1 <0>         0.1396
     48 H20         1.5064   -6.1271   -4.4207 H         1 <0>         0.1432
     49 H21        -0.7000   -5.1147   -4.0103 H         1 <0>         0.1452
     50 H22         4.5087   -0.3528   -0.0446 H         1 <0>         0.4571
@<TRIPOS>BOND
     1    1    9 ar
     2    1    2 ar
     3    1   30 1
     4    2    3 ar
     5    2   31 1
     6    3    4 ar
     7    3   32 1
     8    4    8 ar
     9    4    5 2
    10    5    6 1
    11    5   50 1
    12    6    7 1
    13    6   33 1
    14    6   34 1
    15    7    8 2
    16    7   10 1
    17    8    9 ar
    18    9   35 1
    19   10   11 1
    20   10   12 1
    21   10   23 1
    22   12   13 1
    23   12   36 1
    24   12   37 1
    25   13   14 am
    26   13   38 1
    27   14   15 2
    28   14   16 1
    29   16   17 1
    30   16   39 1
    31   16   40 1
    32   17   18 1
    33   17   41 1
    34   17   42 1
    35   18   22 2
    36   18   19 1
    37   19   20 2
    38   19   43 1
    39   20   21 1
    40   20   44 1
    41   21   22 1
    42   22   45 1
    43   23   28 ar
    44   23   24 ar
    45   24   25 ar
    46   24   46 1
    47   25   26 ar
    48   25   47 1
    49   26   27 ar
    50   26   48 1
    51   27   28 ar
    52   27   49 1
    53   28   29 1
@<TRIPOS>MOLECULE
ZINC12052340
   63    66     0     0     0
SMALL
USER_CHARGES
(1R)-6-cinnamyl-N-[2-(1-cyclohexenyl)ethyl]-6-azaspiro[2.5]octane-1-carboxamide
@<TRIPOS>ATOM
      1 C1         -4.8185   -0.4504    0.0230 C.ar      1 <0>        -0.0955
      2 C2         -4.8407    0.9328    0.0301 C.ar      1 <0>        -0.1189
      3 C3         -3.6589    1.6448    0.0283 C.ar      1 <0>        -0.0902
      4 C4         -2.4394    0.9666    0.0189 C.ar      1 <0>        -0.0983
      5 C5         -2.4240   -0.4286    0.0054 C.ar      1 <0>        -0.1008
      6 C6         -3.6128   -1.1288    0.0141 C.ar      1 <0>        -0.1211
      7 C7         -1.1695    1.7230    0.0170 C.2       1 <0>        -0.0169
      8 C8         -0.0126    1.0758    0.0080 C.2       1 <0>        -0.2535
      9 C9          1.2821    1.8470   -0.0003 C.3       1 <0>         0.0414
     10 C10         2.1390   -0.0554    1.2268 C.3       1 <0>        -0.0021
     11 C11         2.8265   -0.4663    2.5335 C.3       1 <0>        -0.1080
     12 C12         4.2211    0.1671    2.5729 C.3       1 <0>        -0.1224
     13 C13         4.2481    1.6761    2.3084 C.3       1 <0>        -0.1049
     14 C14         3.4765    1.9603    1.0152 C.3       1 <0>        -0.0020
     15 C15         5.3963   -0.6660    2.0645 C.3       1 <0>        -0.1357
     16 C16         5.2351   -0.4016    3.5634 C.3       1 <0>        -0.1685
     17 H1          4.9146   -1.2341    4.1898 H         1 <0>         0.1328
     18 C17         6.1962    0.5642    4.2071 C.2       1 <0>         0.5414
     19 O1          6.1456    1.7443    3.9318 O.2       1 <0>        -0.5398
     20 N1          7.1121    0.1167    5.0888 N.am      1 <0>        -0.7207
     21 C18         8.0465    1.0556    5.7145 C.3       1 <0>         0.1238
     22 C19         8.9725    0.2956    6.6663 C.3       1 <0>        -0.0985
     23 C20         9.9337    1.2614    7.3099 C.2       1 <0>        -0.1273
     24 C21         9.6243    1.7423    8.4712 C.2       1 <0>        -0.1402
     25 C22        10.4740    2.7189    9.2304 C.3       1 <0>        -0.0937
     26 C23        11.8967    2.7291    8.6667 C.3       1 <0>        -0.1233
     27 C24        11.8135    2.8781    7.1423 C.3       1 <0>        -0.1211
     28 C25        11.1927    1.6012    6.5674 C.3       1 <0>        -0.0828
     29 H2         -5.7464   -1.0031    0.0248 H         1 <0>         0.1307
     30 H3         -5.7852    1.4565    0.0375 H         1 <0>         0.1318
     31 H4         -3.6775    2.7246    0.0346 H         1 <0>         0.1292
     32 H5         -1.4834   -0.9593   -0.0064 H         1 <0>         0.1225
     33 H6         -3.6022   -2.2087    0.0089 H         1 <0>         0.1298
     34 H7         -1.1842    2.8029    0.0229 H         1 <0>         0.1304
     35 H8          0.0021   -0.0041    0.0020 H         1 <0>         0.1377
     36 H9          1.8076    1.6648   -0.9377 H         1 <0>         0.1355
     37 H10         1.0713    2.9120    0.0970 H         1 <0>         0.1275
     38 H11         1.1167   -0.4334    1.2197 H         1 <0>         0.1329
     39 H12         2.6865   -0.4720    0.3814 H         1 <0>         0.1304
     40 H13         2.9165   -1.5518    2.5739 H         1 <0>         0.1125
     41 H14         2.2404   -0.1134    3.3820 H         1 <0>         0.0942
     42 H15         5.2799    2.0101    2.1997 H         1 <0>         0.1354
     43 H16         3.7764    2.2015    3.1388 H         1 <0>         0.0921
     44 H17         3.9916    1.4948    0.1749 H         1 <0>         0.1285
     45 H18         3.4193    3.0370    0.8552 H         1 <0>         0.1285
     46 H19         5.1818   -1.6724    1.7049 H         1 <0>         0.1147
     47 H20         6.1975   -0.1413    1.5441 H         1 <0>         0.1094
     48 H21         7.1526   -0.8271    5.3090 H         1 <0>         0.4044
     49 H22         8.6409    1.5452    4.9431 H         1 <0>         0.0722
     50 H23         7.4876    1.8061    6.2735 H         1 <0>         0.0716
     51 H24         8.3781   -0.1940    7.4377 H         1 <0>         0.0749
     52 H25         9.5314   -0.4549    6.1072 H         1 <0>         0.0768
     53 H26         8.6972    1.4205    8.9220 H         1 <0>         0.1025
     54 H27        10.0436    3.7165    9.1431 H         1 <0>         0.0751
     55 H28        10.5058    2.4298   10.2809 H         1 <0>         0.0736
     56 H29        12.4513    3.5680    9.0872 H         1 <0>         0.0671
     57 H30        12.3978    1.7949    8.9199 H         1 <0>         0.0652
     58 H31        11.1913    3.7372    6.8916 H         1 <0>         0.0647
     59 H32        12.8142    3.0145    6.7324 H         1 <0>         0.0674
     60 H33        11.9006    0.7776    6.6608 H         1 <0>         0.0745
     61 H34        10.9601    1.7573    5.5141 H         1 <0>         0.0688
     62 N2          2.1048    1.4216    1.1498 N.4       1 <0>        -0.3920
     63 H35         1.6869    1.7894    2.0126 H         1 <0>         0.4263
@<TRIPOS>BOND
     1    1    6 ar
     2    1    2 ar
     3    1   29 1
     4    2    3 ar
     5    2   30 1
     6    3    4 ar
     7    3   31 1
     8    4    5 ar
     9    4    7 1
    10    5    6 ar
    11    5   32 1
    12    6   33 1
    13    7    8 2
    14    7   34 1
    15    8    9 1
    16    8   35 1
    17    9   36 1
    18    9   37 1
    19    9   62 1
    20   10   11 1
    21   10   38 1
    22   10   39 1
    23   10   62 1
    24   11   12 1
    25   11   40 1
    26   11   41 1
    27   12   16 1
    28   12   13 1
    29   12   15 1
    30   13   14 1
    31   13   42 1
    32   13   43 1
    33   14   44 1
    34   14   45 1
    35   14   62 1
    36   15   16 1
    37   15   46 1
    38   15   47 1
    39   16   17 1
    40   16   18 1
    41   18   19 2
    42   18   20 am
    43   20   21 1
    44   20   48 1
    45   21   22 1
    46   21   49 1
    47   21   50 1
    48   22   23 1
    49   22   51 1
    50   22   52 1
    51   23   28 1
    52   23   24 2
    53   24   25 1
    54   24   53 1
    55   25   26 1
    56   25   54 1
    57   25   55 1
    58   26   27 1
    59   26   56 1
    60   26   57 1
    61   27   28 1
    62   27   58 1
    63   27   59 1
    64   28   60 1
    65   28   61 1
    66   62   63 1
@<TRIPOS>MOLECULE
ZINC27663579
   65    67     0     0     0
SMALL
USER_CHARGES
N-[(2S)-2-(azepan-1-yl)-2-(4-methoxyphenyl)ethyl]-4-propoxy-benzamide
@<TRIPOS>ATOM
      1 C1          3.9257   -5.4501    6.4019 C.3       1 <0>        -0.1530
      2 C2          2.6875   -4.8493    7.0703 C.3       1 <0>        -0.1268
      3 C3          1.9316   -3.9841    6.0598 C.3       1 <0>         0.0538
      4 O1          0.7752   -3.4230    6.6841 O.3       1 <0>        -0.3067
      5 C4         -0.0111   -2.6237    5.9195 C.ar      1 <0>         0.1707
      6 C5         -1.1512   -2.0460    6.4656 C.ar      1 <0>        -0.1589
      7 C6         -1.9519   -1.2347    5.6929 C.ar      1 <0>        -0.0131
      8 C7         -1.6165   -0.9922    4.3582 C.ar      1 <0>        -0.1880
      9 C8         -0.4723   -1.5791    3.8115 C.ar      1 <0>        -0.0410
     10 C9          0.3262   -2.3845    4.5924 C.ar      1 <0>        -0.2189
     11 C10        -2.4719   -0.1232    3.5265 C.2       1 <0>         0.5762
     12 O2         -3.4698    0.3827    4.0024 O.2       1 <0>        -0.5310
     13 N1         -2.1467    0.1095    2.2394 N.am      1 <0>        -0.7391
     14 C11        -2.9957    0.9720    1.4138 C.3       1 <0>         0.1098
     15 C12        -2.4636    0.9890   -0.0206 C.3       1 <0>         0.0820
     16 H1         -2.4162   -0.0288   -0.4352 H         1 <0>         0.1433
     17 C13        -1.0909    1.6105   -0.0398 C.ar      1 <0>        -0.1820
     18 C14         0.0312    0.8040   -0.0878 C.ar      1 <0>        -0.0560
     19 C15         1.2905    1.3714   -0.1117 C.ar      1 <0>        -0.1374
     20 C16         1.4289    2.7515   -0.0818 C.ar      1 <0>         0.1617
     21 C17         0.3016    3.5584   -0.0279 C.ar      1 <0>        -0.1938
     22 C18        -0.9555    2.9861   -0.0042 C.ar      1 <0>        -0.0721
     23 O3          2.6667    3.3121   -0.1057 O.3       1 <0>        -0.3061
     24 C19         2.7333    4.7392   -0.0724 C.3       1 <0>         0.0174
     25 N2         -3.3690    1.7751   -0.8694 N.4       1 <0>        -0.3978
     26 C20        -4.7751    1.3558   -0.6758 C.3       1 <0>        -0.0129
     27 C21        -5.7039    1.9336   -1.7087 C.3       1 <0>        -0.1416
     28 C22        -5.8510    0.9157   -2.8591 C.3       1 <0>        -0.1324
     29 C23        -4.7053    0.9354   -3.7619 C.3       1 <0>        -0.1337
     30 C24        -3.3904    0.5680   -3.0429 C.3       1 <0>        -0.1460
     31 C25        -2.9126    1.7717   -2.2773 C.3       1 <0>        -0.0059
     32 H2          4.4691   -6.0721    7.1284 H         1 <0>         0.0695
     33 H3          4.5815   -4.6403    6.0495 H         1 <0>         0.0587
     34 H4          3.6167   -6.0698    5.5472 H         1 <0>         0.0587
     35 H5          2.0317   -5.6591    7.4227 H         1 <0>         0.0771
     36 H6          2.9965   -4.2296    7.9250 H         1 <0>         0.0770
     37 H7          2.5874   -3.1743    5.7074 H         1 <0>         0.0671
     38 H8          1.6226   -4.6038    5.2051 H         1 <0>         0.0671
     39 H9         -1.4098   -2.2339    7.4972 H         1 <0>         0.1432
     40 H10        -2.8376   -0.7862    6.1179 H         1 <0>         0.1449
     41 H11        -0.2122   -1.3977    2.7791 H         1 <0>         0.1225
     42 H12         1.2134   -2.8347    4.1720 H         1 <0>         0.1371
     43 H13        -1.2438   -0.3482    1.8088 H         1 <0>         0.4218
     44 H14        -4.0255    0.5854    1.4183 H         1 <0>         0.0931
     45 H15        -2.9859    1.9939    1.8207 H         1 <0>         0.0876
     46 H16        -0.0771   -0.2703   -0.1111 H         1 <0>         0.1389
     47 H17         2.1665    0.7412   -0.1540 H         1 <0>         0.1459
     48 H18         0.4068    4.6330   -0.0042 H         1 <0>         0.1417
     49 H19        -1.8334    3.6138    0.0374 H         1 <0>         0.1221
     50 H20         3.7859    5.0578   -0.0966 H         1 <0>         0.1134
     51 H21         2.2600    5.1069    0.8500 H         1 <0>         0.0635
     52 H22         2.2053    5.1513   -0.9449 H         1 <0>         0.0627
     53 H23        -4.8429    0.2597   -0.7390 H         1 <0>         0.1277
     54 H24        -5.1241    1.6883    0.3130 H         1 <0>         0.1351
     55 H25        -6.6854    2.1278   -1.2515 H         1 <0>         0.1124
     56 H26        -5.2852    2.8757   -2.0923 H         1 <0>         0.0857
     57 H27        -5.9402   -0.0983   -2.4423 H         1 <0>         0.0738
     58 H28        -6.7517    1.1519   -3.4448 H         1 <0>         0.0858
     59 H29        -4.8653    0.2100   -4.5732 H         1 <0>         0.0842
     60 H30        -4.5916    1.9431   -4.1881 H         1 <0>         0.0733
     61 H31        -3.5716   -0.2687   -2.3521 H         1 <0>         0.0823
     62 H32        -2.6359    0.2724   -3.7868 H         1 <0>         0.1075
     63 H33        -3.2941    2.6678   -2.7886 H         1 <0>         0.1314
     64 H34        -1.8130    1.7732   -2.3063 H         1 <0>         0.1323
     65 H35        -3.3304    2.8274   -0.5512 H         1 <0>         0.4340
@<TRIPOS>BOND
     1    1    2 1
     2    1   32 1
     3    1   33 1
     4    1   34 1
     5    2    3 1
     6    2   35 1
     7    2   36 1
     8    3    4 1
     9    3   37 1
    10    3   38 1
    11    4    5 1
    12    5   10 ar
    13    5    6 ar
    14    6    7 ar
    15    6   39 1
    16    7    8 ar
    17    7   40 1
    18    8    9 ar
    19    8   11 1
    20    9   10 ar
    21    9   41 1
    22   10   42 1
    23   11   12 2
    24   11   13 am
    25   13   14 1
    26   13   43 1
    27   14   15 1
    28   14   44 1
    29   14   45 1
    30   15   16 1
    31   15   17 1
    32   15   25 1
    33   17   22 ar
    34   17   18 ar
    35   18   19 ar
    36   18   46 1
    37   19   20 ar
    38   19   47 1
    39   20   21 ar
    40   20   23 1
    41   21   22 ar
    42   21   48 1
    43   22   49 1
    44   23   24 1
    45   24   50 1
    46   24   51 1
    47   24   52 1
    48   25   31 1
    49   25   26 1
    50   25   65 1
    51   26   27 1
    52   26   53 1
    53   26   54 1
    54   27   28 1
    55   27   55 1
    56   27   56 1
    57   28   29 1
    58   28   57 1
    59   28   58 1
    60   29   30 1
    61   29   59 1
    62   29   60 1
    63   30   31 1
    64   30   61 1
    65   30   62 1
    66   31   63 1
    67   31   64 1
@<TRIPOS>MOLECULE
ZINC08345467
   61    63     0     0     0
SMALL
USER_CHARGES

@<TRIPOS>ATOM
      1 C1         -0.0045    1.6420   -0.0543 C.3       1 <0>        -0.1437
      2 C2         -0.1968    0.1243   -0.0322 C.3       1 <0>        -0.0639
      3 H1         -1.2615   -0.1075   -0.0590 H         1 <0>         0.1083
      4 C3          0.4086   -0.4404    1.2270 C.ar      1 <0>        -0.0860
      5 C4          1.7677   -0.2584    1.4767 C.ar      1 <0>        -0.0763
      6 C5          2.3456   -0.7555    2.6041 C.ar      1 <0>        -0.1123
      7 C6          1.5629   -1.4631    3.5329 C.ar      1 <0>        -0.0060
      8 C7          2.1248   -1.9898    4.7075 C.ar      1 <0>        -0.1577
      9 C8          1.3336   -2.6716    5.5875 C.ar      1 <0>         0.1355
     10 C9         -0.0298   -2.8530    5.3346 C.ar      1 <0>        -0.1881
     11 C10        -0.6037   -2.3557    4.2066 C.ar      1 <0>        -0.0648
     12 C11         0.1806   -1.6478    3.2791 C.ar      1 <0>        -0.0845
     13 C12        -0.3812   -1.1157    2.1061 C.ar      1 <0>        -0.0807
     14 O1          1.8785   -3.1807    6.7235 O.3       1 <0>        -0.3160
     15 C13         1.0009   -3.8838    7.6053 C.3       1 <0>         0.0247
     16 C14         0.4805   -0.4855   -1.2324 C.2       1 <0>         0.5250
     17 O2          1.3674   -1.2985   -1.0803 O.2       1 <0>        -0.5100
     18 N1          0.1005   -0.1272   -2.4749 N.am      1 <0>        -0.7301
     19 C15         0.7589   -0.7200   -3.6417 C.3       1 <0>         0.1042
     20 C16         0.0701   -0.2329   -4.9181 C.3       1 <0>         0.0726
     21 H2         -0.9942   -0.4623   -4.8669 H         1 <0>         0.1478
     22 C17         0.2571    1.2563   -5.0529 C.ar      1 <0>        -0.1880
     23 C18         1.4452    1.7607   -5.5485 C.ar      1 <0>        -0.0765
     24 C19         1.6192    3.1255   -5.6726 C.ar      1 <0>        -0.1366
     25 C20         0.6005    3.9902   -5.2998 C.ar      1 <0>         0.1634
     26 C21        -0.5909    3.4816   -4.8032 C.ar      1 <0>        -0.1973
     27 C22        -0.7619    2.1158   -4.6859 C.ar      1 <0>        -0.0485
     28 O3          0.7694    5.3333   -5.4205 O.3       1 <0>        -0.3066
     29 C23        -0.3218    6.1632   -5.0173 C.3       1 <0>         0.0207
     30 N2          0.6610   -0.9078   -6.0815 N.4       1 <0>        -0.3817
     31 C24         0.4773   -2.3595   -5.9509 C.3       1 <0>        -0.0552
     32 C25         0.0008   -0.4390   -7.3071 C.3       1 <0>        -0.0482
     33 H3          1.0603    1.8737   -0.0275 H         1 <0>         0.0662
     34 H4         -0.4424    2.0504   -0.9651 H         1 <0>         0.0599
     35 H5         -0.4943    2.0830    0.8138 H         1 <0>         0.0780
     36 H6          2.3712    0.2848    0.7647 H         1 <0>         0.1170
     37 H7          3.4001   -0.6074    2.7840 H         1 <0>         0.1293
     38 H8          3.1766   -1.8568    4.9133 H         1 <0>         0.1362
     39 H9         -0.6354   -3.3959    6.0451 H         1 <0>         0.1330
     40 H10        -1.6578   -2.5040    4.0239 H         1 <0>         0.1322
     41 H11        -1.4336   -1.2454    1.9012 H         1 <0>         0.1257
     42 H12         1.5618   -4.2371    8.4706 H         1 <0>         0.1039
     43 H13         0.2058   -3.2155    7.9358 H         1 <0>         0.0574
     44 H14         0.5658   -4.7353    7.0820 H         1 <0>         0.0570
     45 H15        -0.6089    0.5231   -2.5966 H         1 <0>         0.4047
     46 H16         1.8071   -0.4216   -3.6580 H         1 <0>         0.0883
     47 H17         0.6912   -1.8064   -3.5842 H         1 <0>         0.0940
     48 H18         2.2380    1.0871   -5.8386 H         1 <0>         0.1260
     49 H19         2.5478    3.5190   -6.0592 H         1 <0>         0.1449
     50 H20        -1.3855    4.1528   -4.5122 H         1 <0>         0.1434
     51 H21        -1.6908    1.7192   -4.3035 H         1 <0>         0.1355
     52 H22        -0.0560    7.2100   -5.1650 H         1 <0>         0.1118
     53 H23        -1.2008    5.9237   -5.6157 H         1 <0>         0.0628
     54 H24        -0.5409    5.9891   -3.9639 H         1 <0>         0.0633
     55 H25        -0.5766   -2.5783   -5.7787 H         1 <0>         0.1256
     56 H26         0.8054   -2.8510   -6.8668 H         1 <0>         0.1309
     57 H27         1.0666   -2.7262   -5.1105 H         1 <0>         0.1274
     58 H28         0.1372    0.6381   -7.4040 H         1 <0>         0.1255
     59 H29         0.4393   -0.9398   -8.1703 H         1 <0>         0.1282
     60 H30        -1.0638   -0.6673   -7.2566 H         1 <0>         0.1239
     61 H31         1.6465   -0.6964   -6.1283 H         1 <0>         0.4247
@<TRIPOS>BOND
     1    1    2 1
     2    1   33 1
     3    1   34 1
     4    1   35 1
     5    2    3 1
     6    2    4 1
     7    2   16 1
     8    4   13 ar
     9    4    5 ar
    10    5    6 ar
    11    5   36 1
    12    6    7 ar
    13    6   37 1
    14    7   12 ar
    15    7    8 ar
    16    8    9 ar
    17    8   38 1
    18    9   10 ar
    19    9   14 1
    20   10   11 ar
    21   10   39 1
    22   11   12 ar
    23   11   40 1
    24   12   13 ar
    25   13   41 1
    26   14   15 1
    27   15   42 1
    28   15   43 1
    29   15   44 1
    30   16   17 2
    31   16   18 am
    32   18   19 1
    33   18   45 1
    34   19   20 1
    35   19   46 1
    36   19   47 1
    37   20   21 1
    38   20   22 1
    39   20   30 1
    40   22   27 ar
    41   22   23 ar
    42   23   24 ar
    43   23   48 1
    44   24   25 ar
    45   24   49 1
    46   25   26 ar
    47   25   28 1
    48   26   27 ar
    49   26   50 1
    50   27   51 1
    51   28   29 1
    52   29   52 1
    53   29   53 1
    54   29   54 1
    55   30   31 1
    56   30   32 1
    57   30   61 1
    58   31   55 1
    59   31   56 1
    60   31   57 1
    61   32   58 1
    62   32   59 1
    63   32   60 1
@<TRIPOS>MOLECULE
ZINC40734952
   60    62     0     0     0
SMALL
USER_CHARGES

@<TRIPOS>ATOM
      1 C1         -0.0184    1.5028    0.0103 C.3       1 <0>        -0.1202
      2 C2          0.0021   -0.0041    0.0020 C.ar      1 <0>        -0.0846
      3 C3          0.0057   -0.6888   -1.1991 C.ar      1 <0>        -0.1027
      4 C4          0.0245   -2.0707   -1.2067 C.ar      1 <0>        -0.1144
      5 C5          0.0400   -2.7685   -0.0132 C.ar      1 <0>        -0.0999
      6 C6          0.0373   -2.0840    1.1875 C.ar      1 <0>        -0.1054
      7 C7          0.0229   -0.7015    1.1951 C.ar      1 <0>        -0.0995
      8 C8          0.0538   -2.8445    2.4885 C.3       1 <0>         0.1027
      9 O1          1.4061   -3.0674    2.8928 O.3       1 <0>        -0.3154
     10 C9          1.5989   -3.7450    4.0548 C.ar      1 <0>         0.1909
     11 C10         0.4928   -4.1901    4.7857 C.ar      1 <0>        -0.2107
     12 C11         0.6536   -4.8707    5.9520 C.ar      1 <0>        -0.0139
     13 C12         1.9482   -5.1332    6.4333 C.ar      1 <0>        -0.0905
     14 C13         2.1506   -5.8341    7.6343 C.ar      1 <0>        -0.0733
     15 C14         3.4178   -6.0711    8.0708 C.ar      1 <0>        -0.1275
     16 C15         4.5217   -5.6288    7.3440 C.ar      1 <0>        -0.0690
     17 C16         4.3645   -4.9471    6.1768 C.ar      1 <0>        -0.1561
     18 C17         3.0708   -4.6834    5.6940 C.ar      1 <0>         0.0097
     19 C18         2.8703   -3.9872    4.4907 C.ar      1 <0>        -0.2161
     20 C19         4.0513   -3.5060    3.6878 C.3       1 <0>         0.0579
     21 N1          4.4231   -2.1541    4.1260 N.4       1 <0>        -0.5071
     22 C20         5.5744   -1.6849    3.3433 C.3       1 <0>        -0.0065
     23 C21         5.9616   -0.2769    3.7997 C.3       1 <0>        -0.1500
     24 C22         7.1607    0.2117    2.9845 C.3       1 <0>         0.0648
     25 O2          7.5224    1.5268    3.4107 O.3       1 <0>        -0.3812
     26 C23         8.6378    2.0791    2.7087 C.3       1 <0>         0.0845
     27 C24         8.4999    3.6018    2.6494 C.3       1 <0>        -0.1540
     28 C25         9.9318    1.7123    3.4379 C.3       1 <0>        -0.1784
     29 H1          1.0042    1.8801    0.0026 H         1 <0>         0.0727
     30 H2         -0.5455    1.8639   -0.8728 H         1 <0>         0.0722
     31 H3         -0.5286    1.8543    0.9071 H         1 <0>         0.0690
     32 H4         -0.0064   -0.1437   -2.1314 H         1 <0>         0.1285
     33 H5          0.0266   -2.6056   -2.1449 H         1 <0>         0.1298
     34 H6          0.0540   -3.8484   -0.0191 H         1 <0>         0.1249
     35 H7          0.0246   -0.1666    2.1333 H         1 <0>         0.1229
     36 H8         -0.4637   -2.2663    3.2539 H         1 <0>         0.0804
     37 H9         -0.4484   -3.8028    2.3555 H         1 <0>         0.0815
     38 H10        -0.5031   -3.9902    4.4189 H         1 <0>         0.1431
     39 H11        -0.2097   -5.2079    6.5064 H         1 <0>         0.1446
     40 H12         1.3048   -6.1826    8.2084 H         1 <0>         0.1370
     41 H13         3.5701   -6.6098    8.9944 H         1 <0>         0.1336
     42 H14         5.5166   -5.8298    7.7128 H         1 <0>         0.1323
     43 H15         5.2291   -4.6101    5.6243 H         1 <0>         0.1228
     44 H16         4.8932   -4.1815    3.8394 H         1 <0>         0.1366
     45 H17         3.7877   -3.4855    2.6304 H         1 <0>         0.1408
     46 H18         3.6438   -1.5288    3.9857 H         1 <0>         0.4287
     47 H19         6.4163   -2.3604    3.4949 H         1 <0>         0.1337
     48 H20         5.3107   -1.6645    2.2859 H         1 <0>         0.1345
     49 H21         5.1197    0.3986    3.6481 H         1 <0>         0.0954
     50 H22         6.2253   -0.2973    4.8571 H         1 <0>         0.0956
     51 H23         8.0026   -0.4638    3.1361 H         1 <0>         0.0586
     52 H24         6.8971    0.2321    1.9271 H         1 <0>         0.0588
     53 H25         8.6650    1.6770    1.6959 H         1 <0>         0.0634
     54 H26         8.4727    4.0038    3.6622 H         1 <0>         0.0665
     55 H27         9.3507    4.0230    2.1139 H         1 <0>         0.0759
     56 H28         7.5780    3.8631    2.1299 H         1 <0>         0.0627
     57 H29        10.7826    2.1336    2.9025 H         1 <0>         0.0720
     58 H30         9.9047    2.1144    4.4507 H         1 <0>         0.0667
     59 H31        10.0301    0.6275    3.4802 H         1 <0>         0.0549
     60 H32         4.6672   -2.1730    5.1048 H         1 <0>         0.4257
@<TRIPOS>BOND
     1    1    2 1
     2    1   29 1
     3    1   30 1
     4    1   31 1
     5    2    7 ar
     6    2    3 ar
     7    3    4 ar
     8    3   32 1
     9    4    5 ar
    10    4   33 1
    11    5    6 ar
    12    5   34 1
    13    6    7 ar
    14    6    8 1
    15    7   35 1
    16    8    9 1
    17    8   36 1
    18    8   37 1
    19    9   10 1
    20   10   19 ar
    21   10   11 ar
    22   11   12 ar
    23   11   38 1
    24   12   13 ar
    25   12   39 1
    26   13   18 ar
    27   13   14 ar
    28   14   15 ar
    29   14   40 1
    30   15   16 ar
    31   15   41 1
    32   16   17 ar
    33   16   42 1
    34   17   18 ar
    35   17   43 1
    36   18   19 ar
    37   19   20 1
    38   20   21 1
    39   20   44 1
    40   20   45 1
    41   21   22 1
    42   21   46 1
    43   21   60 1
    44   22   23 1
    45   22   47 1
    46   22   48 1
    47   23   24 1
    48   23   49 1
    49   23   50 1
    50   24   25 1
    51   24   51 1
    52   24   52 1
    53   25   26 1
    54   26   27 1
    55   26   28 1
    56   26   53 1
    57   27   54 1
    58   27   55 1
    59   27   56 1
    60   28   57 1
    61   28   58 1
    62   28   59 1
@<TRIPOS>MOLECULE
ZINC64521482
   42    43     0     0     0
SMALL
USER_CHARGES

@<TRIPOS>ATOM
      1 C1         -0.0163    1.3513    0.0095 C.2       1 <0>        -0.1807
      2 C2          1.1833    2.0380    0.0017 C.2       1 <0>        -0.0837
      3 C3          2.3426    1.3358   -0.0131 C.2       1 <0>        -0.2696
      4 S1          1.7535   -0.3495   -0.0166 S.3       1 <0>         0.0934
      5 C4          0.0021   -0.0041    0.0020 C.2       1 <0>        -0.1168
      6 C5          3.7608    1.8454   -0.0244 C.3       1 <0>         0.0975
      7 N1          4.2350    2.0040    1.3569 N.4       1 <0>        -0.3825
      8 C6          3.4452    3.0437    2.0275 C.3       1 <0>        -0.0136
      9 C7          3.8807    3.1565    3.4901 C.3       1 <0>        -0.1431
     10 C8          5.3660    3.5248    3.5478 C.3       1 <0>        -0.1360
     11 C9          6.1729    2.4727    2.7815 C.3       1 <0>        -0.1222
     12 C10         5.6525    2.3852    1.3452 C.3       1 <0>        -0.0017
     13 C11         7.6496    2.8725    2.7664 C.3       1 <0>         0.1285
     14 N2          8.1769    2.8452    4.1330 N.am      1 <0>        -0.7275
     15 C12         9.4659    3.1639    4.3644 C.2       1 <0>         0.5420
     16 O1         10.1892    3.4733    3.4413 O.2       1 <0>        -0.5027
     17 C13        10.0083    3.1358    5.7701 C.3       1 <0>        -0.1474
     18 S2         11.7592    3.6099    5.7522 S.3       1 <0>        -0.0747
     19 C14        12.2541    3.5271    7.4954 C.3       1 <0>         0.4507
     20 F1         12.0653    2.2256    7.9725 F         1 <0>        -0.1690
     21 F2         13.6037    3.8761    7.6141 F         1 <0>        -0.1421
     22 F3         11.4750    4.4158    8.2440 F         1 <0>        -0.1691
     23 H1         -0.9542    1.8866    0.0258 H         1 <0>         0.1498
     24 H2          1.1967    3.1179    0.0070 H         1 <0>         0.1425
     25 H3         -0.8275   -0.6955    0.0065 H         1 <0>         0.2000
     26 H4          4.3986    1.1333   -0.5480 H         1 <0>         0.1429
     27 H5          3.7967    2.8084   -0.5337 H         1 <0>         0.1470
     28 H6          3.6034    3.9990    1.5271 H         1 <0>         0.1308
     29 H7          2.3881    2.7817    1.9828 H         1 <0>         0.1316
     30 H8          3.2943    3.9302    3.9858 H         1 <0>         0.1149
     31 H9          3.7227    2.2017    3.9916 H         1 <0>         0.0883
     32 H10         5.5169    4.5032    3.0917 H         1 <0>         0.0885
     33 H11         5.6949    3.5510    4.5866 H         1 <0>         0.0943
     34 H12         6.0624    1.5037    3.2683 H         1 <0>         0.1042
     35 H13         6.2249    1.6371    0.7968 H         1 <0>         0.1375
     36 H14         5.7636    3.3545    0.8593 H         1 <0>         0.1369
     37 H15         8.2094    2.1719    2.1469 H         1 <0>         0.0841
     38 H16         7.7495    3.8784    2.3585 H         1 <0>         0.0845
     39 H17         7.5984    2.5978    4.8712 H         1 <0>         0.4063
     40 H18         9.4485    3.8364    6.3896 H         1 <0>         0.1316
     41 H19         9.9084    2.1300    6.1780 H         1 <0>         0.1318
     42 H20         4.1266    1.1309    1.8510 H         1 <0>         0.4230
@<TRIPOS>BOND
     1    1    5 2
     2    1    2 1
     3    1   23 1
     4    2    3 2
     5    2   24 1
     6    3    4 1
     7    3    6 1
     8    4    5 1
     9    5   25 1
    10    6    7 1
    11    6   26 1
    12    6   27 1
    13    7   12 1
    14    7    8 1
    15    7   42 1
    16    8    9 1
    17    8   28 1
    18    8   29 1
    19    9   10 1
    20    9   30 1
    21    9   31 1
    22   10   11 1
    23   10   32 1
    24   10   33 1
    25   11   12 1
    26   11   13 1
    27   11   34 1
    28   12   35 1
    29   12   36 1
    30   13   14 1
    31   13   37 1
    32   13   38 1
    33   14   15 am
    34   14   39 1
    35   15   16 2
    36   15   17 1
    37   17   18 1
    38   17   40 1
    39   17   41 1
    40   18   19 1
    41   19   20 1
    42   19   21 1
    43   19   22 1
@<TRIPOS>MOLECULE
ZINC37507793
   47    48     0     0     0
SMALL
USER_CHARGES

@<TRIPOS>ATOM
      1 C1         -0.0187    1.5258    0.0104 C.3       1 <0>        -0.1797
      2 C2          0.0021   -0.0041    0.0020 C.3       1 <0>         0.0829
      3 H1          0.5293   -0.3651    0.8851 H         1 <0>         0.1457
      4 C3         -1.4117   -0.5257    0.0127 C.ar      1 <0>        -0.1543
      5 C4         -2.1414   -0.5688   -1.1606 C.ar      1 <0>        -0.1186
      6 C5         -3.4383   -1.0473   -1.1508 C.ar      1 <0>        -0.1023
      7 C6         -4.0053   -1.4831    0.0322 C.ar      1 <0>        -0.0347
      8 C7         -3.2753   -1.4408    1.2054 C.ar      1 <0>        -0.1096
      9 C8         -1.9770   -0.9663    1.1948 C.ar      1 <0>        -0.0830
     10 C9         -5.4194   -2.0038    0.0431 C.3       1 <0>        -0.0380
     11 C10        -5.5239   -3.2155   -0.8852 C.3       1 <0>        -0.1419
     12 C11        -5.7997   -2.4173    1.4662 C.3       1 <0>        -0.1505
     13 C12        -6.3704   -0.9072   -0.4407 C.3       1 <0>        -0.1426
     14 N1          0.6897   -0.4778   -1.2066 N.4       1 <0>        -0.5100
     15 C13         2.1002   -0.0703   -1.1590 C.3       1 <0>        -0.0046
     16 C14         2.8163   -0.5637   -2.4178 C.3       1 <0>        -0.1555
     17 H2          2.6777   -1.6381   -2.5381 H         1 <0>         0.1102
     18 C15         4.3235   -0.2155   -2.3555 C.3       1 <0>        -0.1446
     19 C16         4.6157    0.2240   -3.8129 C.3       1 <0>         0.0430
     20 O1          3.4158    0.9276   -4.1995 O.3       1 <0>        -0.3638
     21 C17         2.3027    0.1889   -3.6606 C.3       1 <0>         0.0376
     22 H3          1.0039    1.9031    0.0027 H         1 <0>         0.0843
     23 H4         -0.5459    1.8868   -0.8726 H         1 <0>         0.0827
     24 H5         -0.5289    1.8773    0.9072 H         1 <0>         0.1085
     25 H6         -1.6984   -0.2284   -2.0848 H         1 <0>         0.1175
     26 H7         -4.0086   -1.0803   -2.0673 H         1 <0>         0.1341
     27 H8         -3.7184   -1.7809    2.1297 H         1 <0>         0.1411
     28 H9         -1.4054   -0.9367    2.1106 H         1 <0>         0.1333
     29 H10        -4.8464   -3.9967   -0.5405 H         1 <0>         0.0580
     30 H11        -6.5467   -3.5921   -0.8773 H         1 <0>         0.0677
     31 H12        -5.2530   -2.9209   -1.8990 H         1 <0>         0.0578
     32 H13        -5.7253   -1.5540    2.1276 H         1 <0>         0.0612
     33 H14        -6.8226   -2.7939    1.4741 H         1 <0>         0.0673
     34 H15        -5.1222   -3.1985    1.8109 H         1 <0>         0.0607
     35 H16        -6.0995   -0.6126   -1.4545 H         1 <0>         0.0581
     36 H17        -7.3933   -1.2838   -0.4328 H         1 <0>         0.0677
     37 H18        -6.2960   -0.0439    0.2207 H         1 <0>         0.0588
     38 H19         0.6317   -1.4840   -1.2540 H         1 <0>         0.4303
     39 H20         2.1628    1.0167   -1.1079 H         1 <0>         0.1391
     40 H21         2.5740   -0.5034   -0.2781 H         1 <0>         0.1393
     41 H22         4.5051    0.6028   -1.6587 H         1 <0>         0.0906
     42 H23         4.9143   -1.0913   -2.0874 H         1 <0>         0.0984
     43 H24         5.4787    0.8890   -3.8475 H         1 <0>         0.1079
     44 H25         4.7737   -0.6451   -4.4515 H         1 <0>         0.0725
     45 H26         1.9354   -0.5232   -4.3996 H         1 <0>         0.0766
     46 H27         1.5050    0.8747   -3.3752 H         1 <0>         0.0792
     47 H28         0.2511   -0.0769   -2.0221 H         1 <0>         0.4219
@<TRIPOS>BOND
     1    1    2 1
     2    1   22 1
     3    1   23 1
     4    1   24 1
     5    2    3 1
     6    2    4 1
     7    2   14 1
     8    4    9 ar
     9    4    5 ar
    10    5    6 ar
    11    5   25 1
    12    6    7 ar
    13    6   26 1
    14    7    8 ar
    15    7   10 1
    16    8    9 ar
    17    8   27 1
    18    9   28 1
    19   10   11 1
    20   10   12 1
    21   10   13 1
    22   11   29 1
    23   11   30 1
    24   11   31 1
    25   12   32 1
    26   12   33 1
    27   12   34 1
    28   13   35 1
    29   13   36 1
    30   13   37 1
    31   14   15 1
    32   14   38 1
    33   14   47 1
    34   15   16 1
    35   15   39 1
    36   15   40 1
    37   16   17 1
    38   16   21 1
    39   16   18 1
    40   18   19 1
    41   18   41 1
    42   18   42 1
    43   19   20 1
    44   19   43 1
    45   19   44 1
    46   20   21 1
    47   21   45 1
    48   21   46 1
@<TRIPOS>MOLECULE
ZINC41623362
   45    46     0     0     0
SMALL
USER_CHARGES

@<TRIPOS>ATOM
      1 C1         -0.0187    1.5258    0.0104 C.3       1 <0>        -0.1755
      2 C2          0.0021   -0.0041    0.0020 C.3       1 <0>        -0.1072
      3 H1          0.5123   -0.3556   -0.8948 H         1 <0>         0.0957
      4 C3         -1.4333   -0.5336    0.0129 C.3       1 <0>        -0.1140
      5 C4         -2.1494   -0.0402    1.2717 C.3       1 <0>        -0.1335
      6 C5         -1.4095   -0.5471    2.5112 C.3       1 <0>        -0.1169
      7 C6          0.0259   -0.0175    2.5003 C.3       1 <0>        -0.1442
      8 C7          0.7421   -0.5109    1.2415 C.3       1 <0>         0.0293
      9 H2          0.7568   -1.6008    1.2356 H         1 <0>         0.1409
     10 N1          2.1202   -0.0024    1.2311 N.4       1 <0>        -0.5071
     11 C8          2.8654   -0.5843    2.3555 C.3       1 <0>        -0.0084
     12 C9          4.3007   -0.0547    2.3446 C.3       1 <0>        -0.0472
     13 C10         5.0652   -0.6517    3.4980 C.2       1 <0>         0.0072
     14 N2          5.7675   -1.7568    3.5237 N.2       1 <0>        -0.4906
     15 C11         6.3854   -2.1516    4.6190 C.2       1 <0>         0.0701
     16 C12         6.2595   -1.3608    5.7154 C.2       1 <0>        -0.1982
     17 S1          5.2293   -0.0561    5.0636 S.3       1 <0>         0.1294
     18 C13         7.1942   -3.4227    4.6529 C.3       1 <0>        -0.0246
     19 C14         8.6660   -3.0978    4.3902 C.3       1 <0>        -0.1445
     20 C15         7.0544   -4.0796    6.0276 C.3       1 <0>        -0.1495
     21 H3          1.0039    1.9031    0.0027 H         1 <0>         0.0507
     22 H4         -0.5459    1.8868   -0.8726 H         1 <0>         0.0848
     23 H5         -0.5289    1.8773    0.9072 H         1 <0>         0.0784
     24 H6         -1.9605   -0.1726   -0.8702 H         1 <0>         0.0856
     25 H7         -1.4185   -1.6235    0.0069 H         1 <0>         0.0753
     26 H8         -2.1642    1.0497    1.2777 H         1 <0>         0.0735
     27 H9         -3.1720   -0.4175    1.2794 H         1 <0>         0.0795
     28 H10        -1.9196   -0.1955    3.4080 H         1 <0>         0.0850
     29 H11        -1.3947   -1.6369    2.5052 H         1 <0>         0.0745
     30 H12         0.0111    1.0724    2.5063 H         1 <0>         0.0907
     31 H13         0.5531   -0.3786    3.3834 H         1 <0>         0.0863
     32 H14         2.5667   -0.2586    0.3633 H         1 <0>         0.4300
     33 H15         2.3831   -0.3076    3.2930 H         1 <0>         0.1367
     34 H16         2.8779   -1.6701    2.2599 H         1 <0>         0.1396
     35 H17         4.7830   -0.3314    1.4071 H         1 <0>         0.1179
     36 H18         4.2882    1.0310    2.4401 H         1 <0>         0.1111
     37 H19         6.6713   -1.4847    6.7061 H         1 <0>         0.2035
     38 H20         6.8302   -4.1055    3.8852 H         1 <0>         0.0886
     39 H21         9.0300   -2.4150    5.1579 H         1 <0>         0.0580
     40 H22         9.2510   -4.0172    4.4147 H         1 <0>         0.0688
     41 H23         8.7656   -2.6298    3.4109 H         1 <0>         0.0566
     42 H24         6.0058   -4.3111    6.2147 H         1 <0>         0.0579
     43 H25         7.6393   -4.9990    6.0521 H         1 <0>         0.0702
     44 H26         7.4184   -3.3968    6.7953 H         1 <0>         0.0602
     45 H27         2.1086    1.0026    1.3195 H         1 <0>         0.4254
@<TRIPOS>BOND
     1    1    2 1
     2    1   21 1
     3    1   22 1
     4    1   23 1
     5    2    3 1
     6    2    8 1
     7    2    4 1
     8    4    5 1
     9    4   24 1
    10    4   25 1
    11    5    6 1
    12    5   26 1
    13    5   27 1
    14    6    7 1
    15    6   28 1
    16    6   29 1
    17    7    8 1
    18    7   30 1
    19    7   31 1
    20    8    9 1
    21    8   10 1
    22   10   11 1
    23   10   32 1
    24   10   45 1
    25   11   12 1
    26   11   33 1
    27   11   34 1
    28   12   13 1
    29   12   35 1
    30   12   36 1
    31   13   17 1
    32   13   14 2
    33   14   15 1
    34   15   16 2
    35   15   18 1
    36   16   17 1
    37   16   37 1
    38   18   19 1
    39   18   20 1
    40   18   38 1
    41   19   39 1
    42   19   40 1
    43   19   41 1
    44   20   42 1
    45   20   43 1
    46   20   44 1
@<TRIPOS>MOLECULE
ZINC50005899
   42    43     0     0     0
SMALL
USER_CHARGES

@<TRIPOS>ATOM
      1 C1         -0.0187    1.5258    0.0104 C.3       1 <0>        -0.1908
      2 C2          0.0021   -0.0041    0.0020 C.3       1 <0>        -0.0105
      3 N1         -1.3761   -0.5125    0.0124 N.4       1 <0>        -0.5105
      4 C3         -1.3562   -1.9814    0.0044 C.3       1 <0>         0.0472
      5 C4         -2.7700   -2.5030    0.0151 C.ar      1 <0>        -0.1394
      6 C5         -3.4075   -2.7427    1.2185 C.ar      1 <0>        -0.0949
      7 C6         -4.7036   -3.2205    1.2330 C.ar      1 <0>        -0.0862
      8 C7         -5.3674   -3.4604    0.0373 C.ar      1 <0>         0.1608
      9 C8         -4.7241   -3.2185   -1.1720 C.ar      1 <0>         0.1073
     10 C9         -3.4285   -2.7353   -1.1786 C.ar      1 <0>        -0.1260
     11 F1         -5.3658   -3.4503   -2.3381 F         1 <0>        -0.1167
     12 N2         -6.6796   -3.9445    0.0488 N.pl3     1 <0>        -0.6023
     13 C10        -7.8059   -3.0077    0.0597 C.3       1 <0>         0.0941
     14 C11        -6.9161   -5.3213    0.0498 C.ar      1 <0>         0.1941
     15 C12        -5.8492   -6.2111    0.0452 C.ar      1 <0>        -0.1807
     16 C13        -6.0866   -7.5714    0.0467 C.ar      1 <0>        -0.0755
     17 C14        -7.3847   -8.0484    0.0527 C.ar      1 <0>        -0.1245
     18 C15        -8.4491   -7.1655    0.0573 C.ar      1 <0>        -0.0732
     19 C16        -8.2189   -5.8039    0.0612 C.ar      1 <0>        -0.1750
     20 C17        -7.6399   -9.5336    0.0538 C.3       1 <0>        -0.1134
     21 H1          1.0039    1.9031    0.0027 H         1 <0>         0.1080
     22 H2         -0.5459    1.8868   -0.8726 H         1 <0>         0.0808
     23 H3         -0.5289    1.8773    0.9072 H         1 <0>         0.0810
     24 H4          0.5123   -0.3556   -0.8948 H         1 <0>         0.1322
     25 H5          0.5293   -0.3651    0.8851 H         1 <0>         0.1326
     26 H6         -1.8484   -0.1871    0.8426 H         1 <0>         0.4282
     27 H7         -0.8460   -2.3329   -0.8924 H         1 <0>         0.1415
     28 H8         -0.8290   -2.3425    0.8874 H         1 <0>         0.1436
     29 H9         -2.8912   -2.5565    2.1486 H         1 <0>         0.1438
     30 H10        -5.2001   -3.4075    2.1737 H         1 <0>         0.1487
     31 H11        -2.9290   -2.5431   -2.1167 H         1 <0>         0.1483
     32 H12        -8.0945   -2.7745   -0.9652 H         1 <0>         0.0566
     33 H13        -8.6497   -3.4601    0.5808 H         1 <0>         0.0825
     34 H14        -7.5115   -2.0916    0.5717 H         1 <0>         0.0686
     35 H15        -4.8352   -5.8393    0.0401 H         1 <0>         0.1124
     36 H16        -5.2577   -8.2637    0.0427 H         1 <0>         0.1239
     37 H17        -9.4616   -7.5414    0.0620 H         1 <0>         0.1275
     38 H18        -9.0506   -5.1150    0.0689 H         1 <0>         0.1269
     39 H19        -7.6966   -9.8918    1.0817 H         1 <0>         0.0694
     40 H20        -8.5809   -9.7410   -0.4556 H         1 <0>         0.0666
     41 H21        -6.8267  -10.0424   -0.4639 H         1 <0>         0.0651
     42 H22        -1.8641   -0.1783   -0.8050 H         1 <0>         0.4281
@<TRIPOS>BOND
     1    1    2 1
     2    1   21 1
     3    1   22 1
     4    1   23 1
     5    2    3 1
     6    2   24 1
     7    2   25 1
     8    3    4 1
     9    3   26 1
    10    3   42 1
    11    4    5 1
    12    4   27 1
    13    4   28 1
    14    5   10 ar
    15    5    6 ar
    16    6    7 ar
    17    6   29 1
    18    7    8 ar
    19    7   30 1
    20    8    9 ar
    21    8   12 1
    22    9   10 ar
    23    9   11 1
    24   10   31 1
    25   12   13 1
    26   12   14 1
    27   13   32 1
    28   13   33 1
    29   13   34 1
    30   14   19 ar
    31   14   15 ar
    32   15   16 ar
    33   15   35 1
    34   16   17 ar
    35   16   36 1
    36   17   18 ar
    37   17   20 1
    38   18   19 ar
    39   18   37 1
    40   19   38 1
    41   20   39 1
    42   20   40 1
    43   20   41 1
@<TRIPOS>MOLECULE
ZINC54106892
   40    41     0     0     0
SMALL
USER_CHARGES

@<TRIPOS>ATOM
      1 C1          0.1593    1.8499   -0.1758 C.3       1 <0>        -0.1749
      2 C2          0.1860    0.3258   -0.0446 C.3       1 <0>        -0.1492
      3 C3          0.7276   -0.2880   -1.3373 C.3       1 <0>         0.1370
      4 H1          1.6994    0.1487   -1.5675 H         1 <0>         0.1626
      5 C4          0.8749   -1.7776   -1.1628 C.2       1 <0>        -0.1073
      6 C5          2.0235   -2.4267   -0.8895 C.2       1 <0>        -0.1265
      7 C6          1.7132   -3.7991   -0.8100 C.2       1 <0>        -0.2019
      8 C7          0.3784   -3.9128   -1.0416 C.2       1 <0>         0.0901
      9 O1         -0.1180   -2.6780   -1.2483 O.3       1 <0>        -0.1760
     10 C8         -0.3949   -5.1722   -1.0575 C.ar      1 <0>        -0.0545
     11 C9          0.2433   -6.3898   -0.8148 C.ar      1 <0>        -0.0799
     12 C10        -0.4844   -7.5617   -0.8312 C.ar      1 <0>        -0.1162
     13 C11        -1.8437   -7.5320   -1.0873 C.ar      1 <0>        -0.0569
     14 C12        -2.4824   -6.3287   -1.3291 C.ar      1 <0>        -0.1202
     15 C13        -1.7676   -5.1488   -1.3096 C.ar      1 <0>        -0.0904
     16 C14        -2.6322   -8.8162   -1.1036 C.3       1 <0>        -0.1262
     17 N1         -0.2057   -0.0138   -2.4381 N.4       1 <0>        -0.5114
     18 C15         0.3742   -0.4887   -3.7014 C.3       1 <0>        -0.0102
     19 C16        -0.5381   -0.0899   -4.8631 C.3       1 <0>        -0.1878
     20 H2          1.1509    2.2082   -0.4524 H         1 <0>         0.0743
     21 H3         -0.5580    2.1358   -0.9452 H         1 <0>         0.0551
     22 H4         -0.1341    2.2915    0.7766 H         1 <0>         0.0885
     23 H5          0.8295    0.0440    0.7888 H         1 <0>         0.1171
     24 H6         -0.8244   -0.0411    0.1363 H         1 <0>         0.0920
     25 H7          2.9978   -1.9799   -0.7571 H         1 <0>         0.1634
     26 H8          2.4026   -4.6048   -0.6052 H         1 <0>         0.1640
     27 H9          1.3044   -6.4143   -0.6151 H         1 <0>         0.1322
     28 H10         0.0082   -8.5044   -0.6439 H         1 <0>         0.1361
     29 H11        -3.5436   -6.3125   -1.5291 H         1 <0>         0.1322
     30 H12        -2.2682   -4.2097   -1.4937 H         1 <0>         0.1249
     31 H13        -3.0095   -9.0236   -0.1022 H         1 <0>         0.0799
     32 H14        -3.4696   -8.7197   -1.7946 H         1 <0>         0.0728
     33 H15        -1.9878   -9.6342   -1.4257 H         1 <0>         0.0740
     34 H16        -1.0773   -0.4925   -2.2671 H         1 <0>         0.4304
     35 H17         1.3576   -0.0399   -3.8412 H         1 <0>         0.1329
     36 H18         0.4710   -1.5740   -3.6715 H         1 <0>         0.1290
     37 H19        -0.1079   -0.4423   -5.8006 H         1 <0>         0.1084
     38 H20        -1.5216   -0.5387   -4.7234 H         1 <0>         0.0806
     39 H21        -0.6349    0.9954   -4.8930 H         1 <0>         0.0818
     40 H22        -0.3734    0.9794   -2.4973 H         1 <0>         0.4300
@<TRIPOS>BOND
     1    1    2 1
     2    1   20 1
     3    1   21 1
     4    1   22 1
     5    2    3 1
     6    2   23 1
     7    2   24 1
     8    3    4 1
     9    3    5 1
    10    3   17 1
    11    5    9 1
    12    5    6 2
    13    6    7 1
    14    6   25 1
    15    7    8 2
    16    7   26 1
    17    8    9 1
    18    8   10 1
    19   10   15 ar
    20   10   11 ar
    21   11   12 ar
    22   11   27 1
    23   12   13 ar
    24   12   28 1
    25   13   14 ar
    26   13   16 1
    27   14   15 ar
    28   14   29 1
    29   15   30 1
    30   16   31 1
    31   16   32 1
    32   16   33 1
    33   17   18 1
    34   17   34 1
    35   17   40 1
    36   18   19 1
    37   18   35 1
    38   18   36 1
    39   19   37 1
    40   19   38 1
    41   19   39 1
@<TRIPOS>MOLECULE
ZINC62231262
   47    48     0     0     0
SMALL
USER_CHARGES

@<TRIPOS>ATOM
      1 C1         -0.0187    1.5258    0.0104 C.3       1 <0>        -0.1587
      2 C2          0.0021   -0.0041    0.0020 C.3       1 <0>        -0.1148
      3 C3         -1.4333   -0.5336    0.0129 C.3       1 <0>        -0.0633
      4 H1         -1.9862   -0.1019   -0.8214 H         1 <0>         0.0845
      5 C4         -2.1103   -0.1453    1.3289 C.3       1 <0>        -0.1496
      6 C5         -1.4159   -2.0348   -0.1192 C.ar      1 <0>        -0.0406
      7 C6         -0.7736   -2.8049    0.8322 C.ar      1 <0>        -0.1020
      8 C7         -0.7576   -4.1818    0.7111 C.ar      1 <0>        -0.0834
      9 C8         -1.3844   -4.7887   -0.3612 C.ar      1 <0>        -0.1444
     10 C9         -2.0275   -4.0186   -1.3121 C.ar      1 <0>        -0.1177
     11 C10        -2.0471   -2.6419   -1.1887 C.ar      1 <0>        -0.1034
     12 C11        -1.3662   -6.2897   -0.4938 C.3       1 <0>         0.0858
     13 H2         -0.5515   -6.6974    0.1047 H         1 <0>         0.1464
     14 C12        -2.6970   -6.8614   -0.0008 C.3       1 <0>        -0.1427
     15 H3         -3.5122   -6.4542   -0.5988 H         1 <0>         0.1052
     16 C13        -2.9027   -6.4844    1.4695 C.3       1 <0>        -0.1115
     17 C14        -4.1987   -7.1270    1.9734 C.3       1 <0>        -0.1580
     18 C15        -4.1217   -8.6420    1.7674 C.3       1 <0>         0.0535
     19 O1         -3.8987   -8.9225    0.3840 O.3       1 <0>        -0.3658
     20 C16        -2.6785   -8.3866   -0.1320 C.3       1 <0>         0.0521
     21 N1         -1.1686   -6.6544   -1.9030 N.4       1 <0>        -0.5099
     22 C17         0.1606   -6.2093   -2.3423 C.3       1 <0>        -0.0492
     23 H4          1.0039    1.9031    0.0027 H         1 <0>         0.0596
     24 H5         -0.5459    1.8868   -0.8726 H         1 <0>         0.0567
     25 H6         -0.5289    1.8773    0.9072 H         1 <0>         0.0606
     26 H7          0.5123   -0.3556   -0.8948 H         1 <0>         0.0625
     27 H8          0.5293   -0.3651    0.8851 H         1 <0>         0.0651
     28 H9         -2.1228    0.9405    1.4244 H         1 <0>         0.0697
     29 H10        -3.1329   -0.5225    1.3366 H         1 <0>         0.0573
     30 H11        -1.5574   -0.5770    2.1631 H         1 <0>         0.0586
     31 H12        -0.2839   -2.3308    1.6700 H         1 <0>         0.1354
     32 H13        -0.2552   -4.7835    1.4540 H         1 <0>         0.1323
     33 H14        -2.5169   -4.4926   -2.1501 H         1 <0>         0.1183
     34 H15        -2.5528   -2.0404   -1.9296 H         1 <0>         0.1342
     35 H16        -2.0619   -6.8479    2.0603 H         1 <0>         0.0747
     36 H17        -2.9733   -5.4006    1.5616 H         1 <0>         0.0835
     37 H18        -4.3246   -6.9095    3.0341 H         1 <0>         0.0881
     38 H19        -5.0449   -6.7260    1.4155 H         1 <0>         0.0779
     39 H20        -3.3001   -9.0478    2.3576 H         1 <0>         0.0593
     40 H21        -5.0584   -9.1001    2.0848 H         1 <0>         0.1069
     41 H22        -2.5757   -8.6599   -1.1822 H         1 <0>         0.0855
     42 H23        -1.8379   -8.7899    0.4326 H         1 <0>         0.0661
     43 H24        -1.2384   -7.6559   -2.0042 H         1 <0>         0.4291
     44 H25         0.3073   -6.4799   -3.3879 H         1 <0>         0.1288
     45 H26         0.2360   -5.1274   -2.2330 H         1 <0>         0.1253
     46 H27         0.9250   -6.6903   -1.7319 H         1 <0>         0.1252
     47 H28        -1.8761   -6.2092   -2.4681 H         1 <0>         0.4265
@<TRIPOS>BOND
     1    1    2 1
     2    1   23 1
     3    1   24 1
     4    1   25 1
     5    2    3 1
     6    2   26 1
     7    2   27 1
     8    3    4 1
     9    3    5 1
    10    3    6 1
    11    5   28 1
    12    5   29 1
    13    5   30 1
    14    6   11 ar
    15    6    7 ar
    16    7    8 ar
    17    7   31 1
    18    8    9 ar
    19    8   32 1
    20    9   10 ar
    21    9   12 1
    22   10   11 ar
    23   10   33 1
    24   11   34 1
    25   12   13 1
    26   12   14 1
    27   12   21 1
    28   14   15 1
    29   14   20 1
    30   14   16 1
    31   16   17 1
    32   16   35 1
    33   16   36 1
    34   17   18 1
    35   17   37 1
    36   17   38 1
    37   18   19 1
    38   18   39 1
    39   18   40 1
    40   19   20 1
    41   20   41 1
    42   20   42 1
    43   21   22 1
    44   21   43 1
    45   21   47 1
    46   22   44 1
    47   22   45 1
    48   22   46 1
@<TRIPOS>MOLECULE
ZINC05900351
   61    65     0     0     0
SMALL
USER_CHARGES
(hydroxy-dimethyl-vinyl-BLAHyl) acetate
@<TRIPOS>ATOM
      1 C1         -3.5966   -0.7780    2.0123 C.3       1 <0>        -0.1492
      2 C2         -2.2246   -0.1605    1.9262 C.2       1 <0>         0.4577
      3 O1         -1.2720   -0.7374    2.3947 O.2       1 <0>        -0.5137
      4 O2         -2.0609    1.0304    1.3289 O.3       1 <0>        -0.3456
      5 C3         -0.7113    1.5647    1.2825 C.3       1 <0>         0.0976
      6 H1         -0.1555    1.2076    2.1530 H         1 <0>         0.0909
      7 C4         -0.0128    1.0938    0.0081 C.3       1 <0>        -0.1366
      8 C5         -0.7566    1.5781   -1.2318 C.3       1 <0>        -0.1038
      9 C6         -0.8304    3.1113   -1.2645 C.3       1 <0>        -0.0203
     10 C7         -1.6586    3.5463   -2.4581 C.3       1 <0>        -0.0640
     11 H2         -1.2244    3.0021   -3.3247 H         1 <0>         0.0590
     12 C8         -1.5424    5.0146   -2.8150 C.3       1 <0>        -0.1137
     13 C9         -2.1926    5.2521   -4.1996 C.3       1 <0>        -0.1001
     14 C10        -3.6507    4.8854   -4.0863 C.3       1 <0>        -0.0303
     15 C11        -3.8054    3.4190   -3.6508 C.3       1 <0>        -0.0780
     16 H3         -3.3654    2.7619   -4.4470 H         1 <0>         0.0681
     17 C12        -3.1083    3.0677   -2.3598 C.3       1 <0>        -0.0530
     18 H4         -3.0727    1.9378   -2.3053 H         1 <0>         0.0699
     19 C13        -3.8418    3.5413   -1.1262 C.3       1 <0>        -0.1008
     20 C14        -2.9690    3.7554    0.0977 C.3       1 <0>         0.0083
     21 H5         -3.4494    3.5199    1.0542 H         1 <0>         0.1165
     22 C15        -1.4582    3.5925    0.0403 C.3       1 <0>         0.0443
     23 C16        -0.7626    3.0938    1.3142 C.3       1 <0>        -0.0959
     24 O3         -2.0741    4.8747    0.0801 O.3       1 <0>        -0.3409
     25 C17        -5.3266    3.2349   -3.7241 C.3       1 <0>        -0.1142
     26 C18        -5.6832    3.9658   -5.0513 C.3       1 <0>        -0.1463
     27 C19        -4.4867    4.8996   -5.3773 C.3       1 <0>         0.1589
     28 C20        -3.7094    4.3813   -6.5502 C.2       1 <0>        -0.1747
     29 C21        -3.5049    5.1494   -7.5915 C.2       1 <0>        -0.1840
     30 O4         -4.9540    6.2265   -5.6278 O.3       1 <0>        -0.5476
     31 C22        -4.3385    5.8831   -3.1476 C.3       1 <0>        -0.1356
     32 C23         0.5910    3.6664   -1.3816 C.3       1 <0>        -0.1464
     33 H6         -3.9899   -0.9311    1.0073 H         1 <0>         0.1000
     34 H7         -3.5320   -1.7365    2.5272 H         1 <0>         0.1007
     35 H8         -4.2603   -0.1128    2.5647 H         1 <0>         0.0997
     36 H9          0.0021   -0.0041    0.0020 H         1 <0>         0.0700
     37 H10         1.0179    1.4418    0.0001 H         1 <0>         0.0853
     38 H11        -0.2382    1.2278   -2.1260 H         1 <0>         0.0708
     39 H12        -1.7685    1.1706   -1.2257 H         1 <0>         0.0740
     40 H13        -2.0156    5.6302   -2.0604 H         1 <0>         0.0805
     41 H14        -0.4950    5.3123   -2.9023 H         1 <0>         0.0601
     42 H15        -2.0868    6.3024   -4.4722 H         1 <0>         0.0651
     43 H16        -1.6839    4.6253   -4.9316 H         1 <0>         0.0601
     44 H17        -4.4539    4.4159   -1.2831 H         1 <0>         0.0844
     45 H18        -4.5681    2.7409   -0.8514 H         1 <0>         0.0683
     46 H19         0.2460    3.4948    1.3754 H         1 <0>         0.0980
     47 H20        -1.3325    3.4167    2.1872 H         1 <0>         0.0812
     48 H21        -5.5764    2.1733   -3.8016 H         1 <0>         0.0646
     49 H22        -5.8336    3.6810   -2.8759 H         1 <0>         0.0738
     50 H23        -5.8152    3.2385   -5.8515 H         1 <0>         0.0675
     51 H24        -6.5910    4.5525   -4.9215 H         1 <0>         0.0747
     52 H25        -3.3181    3.3748   -6.5364 H         1 <0>         0.1136
     53 H26        -2.9450    4.7760   -8.4362 H         1 <0>         0.0989
     54 H27        -3.8961    6.1559   -7.6053 H         1 <0>         0.1034
     55 H28        -5.4897    6.3103   -6.4285 H         1 <0>         0.3711
     56 H29        -4.2302    6.8916   -3.5469 H         1 <0>         0.0629
     57 H30        -5.3970    5.6359   -3.0671 H         1 <0>         0.0528
     58 H31        -3.8773    5.8314   -2.1613 H         1 <0>         0.0601
     59 H32         1.0507    3.2974   -2.2985 H         1 <0>         0.0602
     60 H33         0.5549    4.7555   -1.4060 H         1 <0>         0.0625
     61 H34         1.1797    3.3415   -0.5237 H         1 <0>         0.0589
@<TRIPOS>BOND
     1    1    2 1
     2    1   33 1
     3    1   34 1
     4    1   35 1
     5    2    3 2
     6    2    4 1
     7    4    5 1
     8    5    6 1
     9    5   23 1
    10    5    7 1
    11    7    8 1
    12    7   36 1
    13    7   37 1
    14    8    9 1
    15    8   38 1
    16    8   39 1
    17    9   22 1
    18    9   10 1
    19    9   32 1
    20   10   11 1
    21   10   17 1
    22   10   12 1
    23   12   13 1
    24   12   40 1
    25   12   41 1
    26   13   14 1
    27   13   42 1
    28   13   43 1
    29   14   27 1
    30   14   15 1
    31   14   31 1
    32   15   16 1
    33   15   17 1
    34   15   25 1
    35   17   18 1
    36   17   19 1
    37   19   20 1
    38   19   44 1
    39   19   45 1
    40   20   21 1
    41   20   24 1
    42   20   22 1
    43   22   23 1
    44   22   24 1
    45   23   46 1
    46   23   47 1
    47   25   26 1
    48   25   48 1
    49   25   49 1
    50   26   27 1
    51   26   50 1
    52   26   51 1
    53   27   28 1
    54   27   30 1
    55   28   29 2
    56   28   52 1
    57   29   53 1
    58   29   54 1
    59   30   55 1
    60   31   56 1
    61   31   57 1
    62   31   58 1
    63   32   59 1
    64   32   60 1
    65   32   61 1
@<TRIPOS>MOLECULE
ZINC20605647
   33    35     0     0     0
SMALL
USER_CHARGES
7-(5-chloro-2-thienyl)-1-ethyl-2-sulfanyl-5-(trifluoromethyl)pyrido[3,2-e]pyrimidin-4-one
@<TRIPOS>ATOM
      1 C1          6.8474    2.7137   -1.4936 C.3       1 <0>        -0.1672
      2 C2          6.6116    3.1501   -0.0462 C.3       1 <0>         0.0924
      3 N1          5.8918    4.4260   -0.0320 N.pl3     1 <0>        -0.4714
      4 C3          4.5111    4.4347   -0.0177 C.ar      1 <0>         0.4098
      5 C4          3.8530    5.6795   -0.0042 C.ar      1 <0>        -0.2101
      6 C5          2.4566    5.7245    0.0099 C.ar      1 <0>        -0.0274
      7 C6          1.7717    4.5384    0.0100 C.ar      1 <0>        -0.1480
      8 C7          2.4818    3.3319   -0.0037 C.ar      1 <0>         0.3136
      9 N2          3.8118    3.3140   -0.0116 N.ar      1 <0>        -0.4742
     10 C8          1.7417    2.0574   -0.0035 C.2       1 <0>        -0.1629
     11 C9          2.2288    0.7752   -0.0151 C.2       1 <0>        -0.0666
     12 C10         1.3367   -0.2712   -0.0122 C.2       1 <0>        -0.1528
     13 C11         0.0021   -0.0041    0.0020 C.2       1 <0>        -0.0960
     14 S1         -0.0221    1.7810    0.0118 S.3       1 <0>         0.1615
     15 Cl1        -1.3330   -1.1137    0.0083 Cl        1 <0>         0.0366
     16 C12         1.7244    7.0416    0.0240 C.3       1 <0>         0.5170
     17 F1          0.3451    6.8082    0.0360 F         1 <0>        -0.1682
     18 F2          2.0852    7.7635    1.1668 F         1 <0>        -0.1550
     19 F3          2.0633    7.7758   -1.1176 F         1 <0>        -0.1550
     20 C13         4.6716    6.9029   -0.0060 C.2       1 <0>         0.5498
     21 O1          4.1483    8.0048    0.0057 O.2       1 <0>        -0.4524
     22 N3          6.0070    6.7765   -0.0204 N.am      1 <0>        -0.6070
     23 C14         6.5880    5.5952   -0.0324 C.2       1 <0>         0.5531
     24 S2          8.3485    5.5249   -0.0503 S.2       1 <0>        -0.5475
     25 H1          7.3879    1.7557   -1.5043 H         1 <0>         0.0875
     26 H2          7.4441    3.4772   -2.0142 H         1 <0>         0.0718
     27 H3          5.8797    2.5945   -2.0029 H         1 <0>         0.0586
     28 H4          6.0149    2.3866    0.4744 H         1 <0>         0.1101
     29 H5          7.5793    3.2693    0.4631 H         1 <0>         0.1301
     30 H6          0.6918    4.5339    0.0211 H         1 <0>         0.1691
     31 H7          3.2929    0.5909   -0.0266 H         1 <0>         0.1569
     32 H8          1.6904   -1.2916   -0.0214 H         1 <0>         0.1546
     33 H9          6.6191    7.6905   -0.0221 H         1 <0>         0.4891
@<TRIPOS>BOND
     1    1    2 1
     2    1   25 1
     3    1   26 1
     4    1   27 1
     5    2   28 1
     6    2   29 1
     7    2    3 1
     8    3    4 1
     9    3   23 1
    10    4    9 ar
    11    4    5 ar
    12    5    6 ar
    13    5   20 1
    14    6    7 ar
    15    6   16 1
    16    7    8 ar
    17    7   30 1
    18    8    9 ar
    19    8   10 1
    20   10   14 1
    21   10   11 2
    22   11   12 1
    23   11   31 1
    24   12   13 2
    25   12   32 1
    26   13   14 1
    27   13   15 1
    28   16   17 1
    29   16   18 1
    30   16   19 1
    31   20   22 am
    32   20   21 2
    33   22   23 1
    34   22   33 1
    35   23   24 2
@<TRIPOS>MOLECULE
ZINC35678335
   65    69     0     0     0
SMALL
USER_CHARGES

@<TRIPOS>ATOM
      1 C1          0.4270    0.7530    0.7240 C.3       1 <0>        -0.1663
      2 C2          0.1664   -0.7297    0.4505 C.3       1 <0>         0.1212
      3 N1         -1.2723   -0.9500    0.2842 N.pl3     1 <0>        -0.2919
      4 C3         -1.8476   -1.5424   -0.7920 C.2       1 <0>        -0.0290
      5 C4         -3.1825   -1.5609   -0.5730 C.2       1 <0>        -0.2111
      6 C5         -3.3683   -0.9474    0.6914 C.2       1 <0>         0.0073
      7 N2         -2.1710   -0.6150    1.1389 N.2       1 <0>        -0.2047
      8 C6         -4.6494   -0.7280    1.3765 C.2       1 <0>         0.0236
      9 C7         -4.6878   -0.0182    2.5321 C.2       1 <0>        -0.2044
     10 C8         -5.8802    0.0841    3.4643 C.3       1 <0>        -0.0822
     11 C9         -5.5701    1.3121    4.3668 C.3       1 <0>        -0.0663
     12 H1         -6.0084    1.2005    5.3720 H         1 <0>         0.0905
     13 C10        -6.0952    2.5587    3.6696 C.3       1 <0>        -0.0731
     14 H2         -7.1733    2.6208    3.8830 H         1 <0>         0.0699
     15 C11        -5.9300    2.4836    2.1532 C.3       1 <0>        -0.1182
     16 C12        -6.6895    3.6598    1.5343 C.3       1 <0>        -0.1128
     17 C13        -6.1152    4.9857    2.0182 C.3       1 <0>        -0.0637
     18 H3         -6.8249    5.7784    1.6913 H         1 <0>         0.0606
     19 C14        -4.7927    5.2673    1.3131 C.3       1 <0>        -0.1094
     20 C15        -4.3347    6.6785    1.6938 C.3       1 <0>         0.1046
     21 H4         -5.1204    7.3933    1.4588 H         1 <0>         0.0530
     22 C16        -4.0480    6.6943    3.1943 C.3       1 <0>        -0.1525
     23 C17        -5.2791    6.3254    3.9988 C.3       1 <0>        -0.1022
     24 C18        -6.0149    5.0732    3.5281 C.3       1 <0>        -0.0362
     25 C19        -5.4285    3.8294    4.1851 C.3       1 <0>        -0.0598
     26 H5         -5.6197    3.8931    5.2708 H         1 <0>         0.0658
     27 C20        -3.9193    3.7308    3.9756 C.3       1 <0>        -0.1203
     28 C21        -3.3878    2.5582    4.8037 C.3       1 <0>        -0.1006
     29 C22        -4.0362    1.2543    4.4139 C.3       1 <0>        -0.1065
     30 C23        -3.6224    0.7532    3.0546 C.2       1 <0>         0.3952
     31 O1         -2.5624    0.9716    2.5031 O.2       1 <0>        -0.3995
     32 C24        -3.6273    0.1975    5.4507 C.3       1 <0>        -0.1364
     33 C25        -7.4660    5.2240    4.0679 C.3       1 <0>        -0.1513
     34 O2         -3.1477    7.0077    0.9707 O.3       1 <0>        -0.5675
     35 H6          1.4975    0.9169    0.8478 H         1 <0>         0.0743
     36 H7          0.0631    1.3466   -0.1146 H         1 <0>         0.0595
     37 H8         -0.0938    1.0516    1.6337 H         1 <0>         0.0818
     38 H9          0.6873   -1.0283   -0.4592 H         1 <0>         0.0977
     39 H10         0.5303   -1.3233    1.2891 H         1 <0>         0.0882
     40 H11        -1.3355   -1.9272   -1.6615 H         1 <0>         0.1728
     41 H12        -3.9461   -1.9591   -1.2247 H         1 <0>         0.1533
     42 H13        -5.5605   -1.1318    0.9602 H         1 <0>         0.1405
     43 H14        -6.8030    0.2351    2.9020 H         1 <0>         0.0810
     44 H15        -5.9722   -0.8248    4.0661 H         1 <0>         0.0799
     45 H16        -4.8788    2.5459    1.8847 H         1 <0>         0.0656
     46 H17        -6.3543    1.5562    1.7720 H         1 <0>         0.0688
     47 H18        -6.6005    3.6030    0.4449 H         1 <0>         0.0602
     48 H19        -7.7449    3.5874    1.7981 H         1 <0>         0.0634
     49 H20        -4.0365    4.5458    1.5987 H         1 <0>         0.0773
     50 H21        -4.9408    5.2220    0.2309 H         1 <0>         0.0640
     51 H22        -3.2161    6.0264    3.4089 H         1 <0>         0.0773
     52 H23        -3.7323    7.7117    3.4721 H         1 <0>         0.0562
     53 H24        -4.9885    6.1805    5.0504 H         1 <0>         0.0636
     54 H25        -5.9857    7.1685    3.9811 H         1 <0>         0.0588
     55 H26        -3.6806    3.5633    2.9299 H         1 <0>         0.0718
     56 H27        -3.4360    4.6427    4.3331 H         1 <0>         0.0682
     57 H28        -2.3101    2.4807    4.6544 H         1 <0>         0.0655
     58 H29        -3.5842    2.7538    5.8586 H         1 <0>         0.0635
     59 H30        -4.0298   -0.7725    5.1590 H         1 <0>         0.0587
     60 H31        -2.5400    0.1395    5.5010 H         1 <0>         0.0572
     61 H32        -4.0218    0.4756    6.4280 H         1 <0>         0.0644
     62 H33        -8.0567    4.3580    3.7691 H         1 <0>         0.0584
     63 H34        -7.4439    5.2911    5.1556 H         1 <0>         0.0540
     64 H35        -7.9142    6.1288    3.6571 H         1 <0>         0.0526
     65 H36        -2.8015    7.8897    1.1635 H         1 <0>         0.3759
@<TRIPOS>BOND
     1    1    2 1
     2    1   35 1
     3    1   36 1
     4    1   37 1
     5    2    3 1
     6    2   38 1
     7    2   39 1
     8    3    7 1
     9    3    4 1
    10    4    5 2
    11    4   40 1
    12    5    6 1
    13    5   41 1
    14    6    7 2
    15    6    8 1
    16    8    9 2
    17    8   42 1
    18    9   30 1
    19    9   10 1
    20   10   11 1
    21   10   43 1
    22   10   44 1
    23   11   12 1
    24   11   29 1
    25   11   13 1
    26   13   14 1
    27   13   25 1
    28   13   15 1
    29   15   16 1
    30   15   45 1
    31   15   46 1
    32   16   17 1
    33   16   47 1
    34   16   48 1
    35   17   18 1
    36   17   24 1
    37   17   19 1
    38   19   20 1
    39   19   49 1
    40   19   50 1
    41   20   21 1
    42   20   22 1
    43   20   34 1
    44   22   23 1
    45   22   51 1
    46   22   52 1
    47   23   24 1
    48   23   53 1
    49   23   54 1
    50   24   25 1
    51   24   33 1
    52   25   26 1
    53   25   27 1
    54   27   28 1
    55   27   55 1
    56   27   56 1
    57   28   29 1
    58   28   57 1
    59   28   58 1
    60   29   30 1
    61   29   32 1
    62   30   31 2
    63   32   59 1
    64   32   60 1
    65   32   61 1
    66   33   62 1
    67   33   63 1
    68   33   64 1
    69   34   65 1
@<TRIPOS>MOLECULE
ZINC43735636
   65    68     0     0     0
SMALL
USER_CHARGES

@<TRIPOS>ATOM
      1 C1         -0.0187    1.5258    0.0104 C.3       1 <0>        -0.1351
      2 C2          0.0021   -0.0041    0.0020 C.3       1 <0>        -0.1045
      3 H1          0.4996   -0.3662   -0.8977 H         1 <0>         0.0760
      4 C3         -1.4477   -0.5572    0.0688 C.3       1 <0>        -0.1112
      5 C4         -1.2997   -1.8008    0.9523 C.3       1 <0>        -0.0805
      6 H2         -0.8409   -2.6134    0.3889 H         1 <0>         0.0778
      7 C5         -2.5683   -2.2823    1.6329 C.3       1 <0>        -0.0673
      8 H3         -3.0016   -1.4818    2.2324 H         1 <0>         0.0825
      9 C6         -3.5710   -2.7529    0.5734 C.3       1 <0>        -0.0839
     10 C7         -4.7507   -3.3822    1.2552 C.2       1 <0>        -0.1464
     11 C8         -4.6775   -3.9371    2.4294 C.2       1 <0>        -0.1070
     12 C9         -5.9379   -4.5527    3.0140 C.3       1 <0>        -0.0993
     13 C10        -5.6177   -5.9852    3.4509 C.3       1 <0>         0.0906
     14 H4         -5.3680   -6.5849    2.5756 H         1 <0>         0.0840
     15 C11        -4.4300   -5.9706    4.4148 C.3       1 <0>        -0.1175
     16 C12        -3.1849   -5.4544    3.6909 C.3       1 <0>        -0.1030
     17 C13        -3.4199   -4.0088    3.2435 C.3       1 <0>        -0.0132
     18 C14        -2.1923   -3.4717    2.5272 C.3       1 <0>        -0.0675
     19 H5         -1.8075   -4.2705    1.8931 H         1 <0>         0.0651
     20 C15        -1.1037   -3.1044    3.5318 C.3       1 <0>        -0.1182
     21 C16         0.1280   -2.4983    2.8413 C.3       1 <0>        -0.1030
     22 C17        -0.3316   -1.2913    2.0534 C.3       1 <0>        -0.0691
     23 C18         0.7312   -0.5328    1.2623 C.3       1 <0>         0.1577
     24 H6          1.5409   -1.2042    0.9763 H         1 <0>         0.0899
     25 N1          1.2525    0.5846    2.0534 N.am      1 <0>        -0.7218
     26 C19         2.4651    1.1014    1.7724 C.2       1 <0>         0.5092
     27 O1          3.1248    0.6413    0.8645 O.2       1 <0>        -0.5461
     28 C20         3.0013    2.2508    2.5862 C.3       1 <0>        -0.1739
     29 C21        -1.0699   -0.3348    2.9920 C.3       1 <0>        -0.1563
     30 C22        -3.6114   -3.1488    4.4943 C.3       1 <0>        -0.1525
     31 O2         -6.7558   -6.5491    4.1058 O.3       1 <0>        -0.3487
     32 C23        -7.6421   -7.1993    3.3354 C.2       1 <0>         0.4575
     33 O3         -7.4576   -7.2869    2.1445 O.2       1 <0>        -0.5118
     34 C24        -8.8671   -7.8202    3.9558 C.3       1 <0>        -0.1479
     35 H7          1.0039    1.9031    0.0027 H         1 <0>         0.0528
     36 H8         -0.5459    1.8868   -0.8726 H         1 <0>         0.0516
     37 H9         -0.5289    1.8773    0.9072 H         1 <0>         0.0527
     38 H10        -2.1163    0.1680    0.5326 H         1 <0>         0.0704
     39 H11        -1.8025   -0.8302   -0.9250 H         1 <0>         0.0671
     40 H12        -3.9042   -1.8994   -0.0171 H         1 <0>         0.0726
     41 H13        -3.0946   -3.4845   -0.0793 H         1 <0>         0.0744
     42 H14        -5.7039   -3.3742    0.7476 H         1 <0>         0.1044
     43 H15        -6.2653   -3.9705    3.8754 H         1 <0>         0.0811
     44 H16        -6.7240   -4.5661    2.2591 H         1 <0>         0.0722
     45 H17        -4.6556   -5.3184    5.2585 H         1 <0>         0.0797
     46 H18        -4.2453   -6.9816    4.7781 H         1 <0>         0.0727
     47 H19        -2.3301   -5.4917    4.3662 H         1 <0>         0.0769
     48 H20        -2.9870   -6.0774    2.8187 H         1 <0>         0.0660
     49 H21        -1.5049   -2.3811    4.2417 H         1 <0>         0.0757
     50 H22        -0.8023   -4.0014    4.0728 H         1 <0>         0.0631
     51 H23         0.8619   -2.1965    3.5887 H         1 <0>         0.0644
     52 H24         0.5681   -3.2267    2.1602 H         1 <0>         0.0640
     53 H25         0.7249    0.9525    2.7795 H         1 <0>         0.4007
     54 H26         2.2741    2.5255    3.3502 H         1 <0>         0.0738
     55 H27         3.9351    1.9536    3.0635 H         1 <0>         0.0944
     56 H28         3.1826    3.1047    1.9334 H         1 <0>         0.0942
     57 H29        -1.9045   -0.8569    3.4599 H         1 <0>         0.0745
     58 H30        -0.3848    0.0192    3.7624 H         1 <0>         0.0545
     59 H31        -1.4463    0.5149    2.4223 H         1 <0>         0.0606
     60 H32        -4.4539   -3.5297    5.0716 H         1 <0>         0.0565
     61 H33        -2.7077   -3.1859    5.1027 H         1 <0>         0.0663
     62 H34        -3.8091   -2.1181    4.1999 H         1 <0>         0.0556
     63 H35        -8.8612   -7.6395    5.0307 H         1 <0>         0.0915
     64 H36        -9.7610   -7.3763    3.5176 H         1 <0>         0.1052
     65 H37        -8.8651   -8.8939    3.7678 H         1 <0>         0.1055
@<TRIPOS>BOND
     1    1    2 1
     2    1   35 1
     3    1   36 1
     4    1   37 1
     5    2    3 1
     6    2   23 1
     7    2    4 1
     8    4    5 1
     9    4   38 1
    10    4   39 1
    11    5    6 1
    12    5   22 1
    13    5    7 1
    14    7    8 1
    15    7   18 1
    16    7    9 1
    17    9   10 1
    18    9   40 1
    19    9   41 1
    20   10   11 2
    21   10   42 1
    22   11   17 1
    23   11   12 1
    24   12   13 1
    25   12   43 1
    26   12   44 1
    27   13   14 1
    28   13   15 1
    29   13   31 1
    30   15   16 1
    31   15   45 1
    32   15   46 1
    33   16   17 1
    34   16   47 1
    35   16   48 1
    36   17   18 1
    37   17   30 1
    38   18   19 1
    39   18   20 1
    40   20   21 1
    41   20   49 1
    42   20   50 1
    43   21   22 1
    44   21   51 1
    45   21   52 1
    46   22   23 1
    47   22   29 1
    48   23   24 1
    49   23   25 1
    50   25   26 am
    51   25   53 1
    52   26   27 2
    53   26   28 1
    54   28   54 1
    55   28   55 1
    56   28   56 1
    57   29   57 1
    58   29   58 1
    59   29   59 1
    60   30   60 1
    61   30   61 1
    62   30   62 1
    63   31   32 1
    64   32   33 2
    65   32   34 1
    66   34   63 1
    67   34   64 1
    68   34   65 1
@<TRIPOS>MOLECULE
ZINC65331393
   40    43     0     0     0
SMALL
USER_CHARGES

@<TRIPOS>ATOM
      1 C1         -1.7166    0.9006   -0.3264 C.3       1 <0>        -0.1139
      2 C2         -0.8115   -0.2927   -0.1594 C.ar      1 <0>        -0.0548
      3 C3         -0.0692   -0.7582   -1.2364 C.ar      1 <0>         0.1469
      4 C4          0.7635   -1.8578   -1.0788 C.ar      1 <0>        -0.1220
      5 C5          0.8517   -2.4861    0.1483 C.ar      1 <0>        -0.0907
      6 C6          0.1115   -2.0215    1.2194 C.ar      1 <0>        -0.0971
      7 C7         -0.7151   -0.9216    1.0676 C.ar      1 <0>        -0.0246
      8 Cl1        -1.6367   -0.3362    2.4172 Cl        1 <0>        -0.0472
      9 N1         -0.1606   -0.1194   -2.4806 N.pl3     1 <0>        -0.3200
     10 C8         -0.3471   -0.7215   -3.6729 C.2       1 <0>         0.3289
     11 C9         -0.3805    0.2580   -4.6309 C.2       1 <0>        -0.2671
     12 C10        -0.2071    1.4804   -3.9991 C.2       1 <0>         0.0984
     13 N2         -0.0806    1.2640   -2.7103 N.2       1 <0>        -0.2712
     14 C11        -0.5808   -0.0535   -6.0917 C.3       1 <0>         0.0402
     15 H1         -1.1113    0.7681   -6.5729 H         1 <0>         0.1187
     16 C12        -1.4087   -1.3373   -6.2020 C.3       1 <0>        -0.1344
     17 C13        -0.9340   -2.3820   -5.2336 C.2       1 <0>         0.5339
     18 O1         -0.9505   -3.5462   -5.5737 O.2       1 <0>        -0.5039
     19 N3         -0.4896   -2.0702   -3.9969 N.am      1 <0>        -0.6506
     20 C14         0.7570   -0.2524   -6.7563 C.ar      1 <0>        -0.0212
     21 C15         1.6017   -1.2562   -6.3214 C.ar      1 <0>        -0.1605
     22 C16         2.8313   -1.4397   -6.9311 C.ar      1 <0>         0.1374
     23 C17         3.2143   -0.6176   -7.9769 C.ar      1 <0>        -0.1930
     24 C18         2.3673    0.3871   -8.4119 C.ar      1 <0>         0.1371
     25 C19         1.1359    0.5654   -7.8041 C.ar      1 <0>        -0.1536
     26 F1          2.7397    1.1902   -9.4325 F         1 <0>        -0.1276
     27 F2          3.6572   -2.4204   -6.5052 F         1 <0>        -0.1291
     28 H2         -1.1577    1.8127   -0.1170 H         1 <0>         0.0874
     29 H3         -2.0922    0.9314   -1.3492 H         1 <0>         0.0715
     30 H4         -2.5545    0.8209    0.3662 H         1 <0>         0.0754
     31 H5          1.3417   -2.2221   -1.9151 H         1 <0>         0.1333
     32 H6          1.4995   -3.3416    0.2710 H         1 <0>         0.1470
     33 H7          0.1819   -2.5147    2.1777 H         1 <0>         0.1448
     34 H8         -0.1844    2.4453   -4.4837 H         1 <0>         0.1976
     35 H9         -2.4534   -1.1066   -5.9936 H         1 <0>         0.1188
     36 H10        -1.3267   -1.7281   -7.2162 H         1 <0>         0.1196
     37 H11        -0.2758   -2.7638   -3.3534 H         1 <0>         0.4151
     38 H12         1.3027   -1.8975   -5.5055 H         1 <0>         0.1318
     39 H13         4.1733   -0.7597   -8.4528 H         1 <0>         0.1501
     40 H14         0.4730    1.3464   -8.1462 H         1 <0>         0.1489
@<TRIPOS>BOND
     1    1    2 1
     2    1   28 1
     3    1   29 1
     4    1   30 1
     5    2    7 ar
     6    2    3 ar
     7    3    4 ar
     8    3    9 1
     9    4    5 ar
    10    4   31 1
    11    5    6 ar
    12    5   32 1
    13    6    7 ar
    14    6   33 1
    15    7    8 1
    16    9   13 1
    17    9   10 1
    18   10   19 1
    19   10   11 2
    20   11   12 1
    21   11   14 1
    22   12   13 2
    23   12   34 1
    24   14   15 1
    25   14   16 1
    26   14   20 1
    27   16   17 1
    28   16   35 1
    29   16   36 1
    30   17   18 2
    31   17   19 am
    32   19   37 1
    33   20   25 ar
    34   20   21 ar
    35   21   22 ar
    36   21   38 1
    37   22   23 ar
    38   22   27 1
    39   23   24 ar
    40   23   39 1
    41   24   25 ar
    42   24   26 1
    43   25   40 1
@<TRIPOS>MOLECULE
ZINC09762024
   32    34     0     0     0
SMALL
USER_CHARGES
8-[(4-chlorophenyl)methylsulfanyl]-3-fluoro-10$l^{6}-thia-7,9-diazabicyclo[4.4.0]deca-2,4,8,11-tetraene 10,10-dioxide
@<TRIPOS>ATOM
      1 C1          0.0021   -0.0041    0.0020 C.ar      1 <0>        -0.0836
      2 C2         -0.0167    1.3779    0.0096 C.ar      1 <0>        -0.1098
      3 C3          1.1721    2.0857    0.0021 C.ar      1 <0>        -0.0238
      4 C4          2.3790    1.4094   -0.0126 C.ar      1 <0>        -0.1099
      5 C5          2.3965    0.0274   -0.0207 C.ar      1 <0>        -0.0837
      6 C6          1.2083   -0.6792   -0.0131 C.ar      1 <0>        -0.0880
      7 C7          1.2281   -2.1860   -0.0219 C.3       1 <0>        -0.0595
      8 S1          1.2200   -2.7796   -1.7318 S.3       1 <0>         0.0149
      9 C8          1.2455   -4.5190   -1.4520 C.2       1 <0>         0.4879
     10 N1          1.2674   -4.9209   -0.2217 N.2       1 <0>        -0.9447
     11 S2          1.2983   -6.5376    0.1458 S.o2      1 <0>         2.6334
     12 O1         -0.0356   -6.9180    0.4542 O.2       1 <0>        -0.9433
     13 O2          2.3799   -6.7293    1.0474 O.2       1 <0>        -0.9352
     14 C9          1.7306   -7.3644   -1.3511 C.ar      1 <0>        -0.6835
     15 C10         2.1330   -8.6814   -1.3388 C.ar      1 <0>        -0.0217
     16 C11         2.4731   -9.3086   -2.5271 C.ar      1 <0>         0.0764
     17 C12         2.4071   -8.6103   -3.7213 C.ar      1 <0>        -0.0712
     18 C13         2.0019   -7.2904   -3.7348 C.ar      1 <0>        -0.1243
     19 C14         1.6591   -6.6576   -2.5461 C.ar      1 <0>         0.2152
     20 N2          1.2459   -5.3266   -2.5484 N.pl3     1 <0>        -0.6554
     21 F1          2.8683  -10.6005   -2.5205 F         1 <0>        -0.1261
     22 Cl1         1.1494    3.8215    0.0110 Cl        1 <0>        -0.0624
     23 H1         -0.9258   -0.5566    0.0083 H         1 <0>         0.1388
     24 H2         -0.9591    1.9053    0.0169 H         1 <0>         0.1391
     25 H3          3.3073    1.9614   -0.0178 H         1 <0>         0.1390
     26 H4          3.3386   -0.5006   -0.0325 H         1 <0>         0.1386
     27 H5          2.1275   -2.5406    0.4815 H         1 <0>         0.1214
     28 H6          0.3478   -2.5640    0.4980 H         1 <0>         0.1209
     29 H7          2.1837   -9.2237   -0.4062 H         1 <0>         0.1553
     30 H8          2.6734   -9.1005   -4.6461 H         1 <0>         0.1565
     31 H9          1.9511   -6.7503   -4.6687 H         1 <0>         0.1544
     32 H10         0.9382   -4.9500   -3.3876 H         1 <0>         0.4345
@<TRIPOS>BOND
     1    1    6 ar
     2    1    2 ar
     3    1   23 1
     4    2    3 ar
     5    2   24 1
     6    3    4 ar
     7    3   22 1
     8    4    5 ar
     9    4   25 1
    10    5    6 ar
    11    5   26 1
    12    6    7 1
    13    7    8 1
    14    7   27 1
    15    7   28 1
    16    8    9 1
    17    9   20 1
    18    9   10 2
    19   10   11 1
    20   11   12 2
    21   11   13 2
    22   11   14 1
    23   14   19 ar
    24   14   15 ar
    25   15   16 ar
    26   15   29 1
    27   16   17 ar
    28   16   21 1
    29   17   18 ar
    30   17   30 1
    31   18   19 ar
    32   18   31 1
    33   19   20 1
    34   20   32 1
@<TRIPOS>MOLECULE
ZINC27979422
   35    37     0     0     0
SMALL
USER_CHARGES
N-(5-bromothiazol-2-yl)-1,2,3-trimethyl-indole-5-carboxamide
@<TRIPOS>ATOM
      1 C1          9.1786    5.0630   -0.0577 C.3       1 <0>        -0.0835
      2 C2          8.0169    6.0228   -0.0428 C.2       1 <0>        -0.1581
      3 C3          8.0876    7.3628   -0.0365 C.2       1 <0>         0.0753
      4 N1          6.8278    7.8973   -0.0221 N.pl3     1 <0>        -0.4777
      5 C4          5.8912    6.8919   -0.0187 C.ar      1 <0>         0.1253
      6 C5          6.5941    5.6707   -0.0315 C.ar      1 <0>        -0.1144
      7 C6          5.8966    4.4657   -0.0309 C.ar      1 <0>         0.0121
      8 C7          4.5046    4.4821   -0.0176 C.ar      1 <0>        -0.1708
      9 C8          3.8170    5.7037   -0.0107 C.ar      1 <0>        -0.0692
     10 C9          4.4980    6.8850   -0.0052 C.ar      1 <0>        -0.1301
     11 C10         3.7521    3.2122   -0.0168 C.2       1 <0>         0.5648
     12 O1          4.3480    2.1524   -0.0278 O.2       1 <0>        -0.4691
     13 N2          2.4045    3.2275   -0.0040 N.am      1 <0>        -0.6308
     14 C11         1.6962    2.0322   -0.0032 C.2       1 <0>         0.3294
     15 N3          2.1566    0.7966   -0.0143 N.2       1 <0>        -0.5172
     16 C12         1.3379   -0.2378   -0.0120 C.2       1 <0>         0.1152
     17 C13         0.0021   -0.0041    0.0020 C.2       1 <0>        -0.2443
     18 S1         -0.0222    1.7826    0.0118 S.3       1 <0>         0.1060
     19 Br1        -1.4374   -1.2303    0.0092 Br        1 <0>         0.0539
     20 C14         6.5227    9.3301   -0.0114 C.3       1 <0>         0.0702
     21 C15         9.3657    8.1613   -0.0433 C.3       1 <0>        -0.0965
     22 H1         10.1218    5.6290   -0.0637 H         1 <0>         0.0660
     23 H2          9.1228    4.4338   -0.9583 H         1 <0>         0.0676
     24 H3          9.1391    4.4256    0.8380 H         1 <0>         0.0676
     25 H4          6.4305    3.5270   -0.0410 H         1 <0>         0.1392
     26 H5          2.7370    5.7092   -0.0053 H         1 <0>         0.1265
     27 H6          3.9554    7.8187    0.0050 H         1 <0>         0.1273
     28 H7          1.8654    4.1863    0.0058 H         1 <0>         0.4525
     29 H8          1.7224   -1.2470   -0.0207 H         1 <0>         0.1799
     30 H9          5.4320    9.4726   -0.0007 H         1 <0>         0.0889
     31 H10         6.9453    9.8017   -0.9108 H         1 <0>         0.0784
     32 H11         6.9617    9.7917    0.8854 H         1 <0>         0.0784
     33 H12         9.1272    9.2351   -0.0357 H         1 <0>         0.0683
     34 H13         9.9437    7.9204   -0.9477 H         1 <0>         0.0845
     35 H14         9.9590    7.9112    0.8485 H         1 <0>         0.0845
@<TRIPOS>BOND
     1    1    2 1
     2    1   22 1
     3    1   23 1
     4    1   24 1
     5    2    6 1
     6    2    3 2
     7    3    4 1
     8    3   21 1
     9    4    5 1
    10    4   20 1
    11    5   10 ar
    12    5    6 ar
    13    6    7 ar
    14    7    8 ar
    15    7   25 1
    16    8    9 ar
    17    8   11 1
    18    9   10 ar
    19    9   26 1
    20   10   27 1
    21   11   12 2
    22   11   13 am
    23   13   14 1
    24   13   28 1
    25   14   18 1
    26   14   15 2
    27   15   16 1
    28   16   17 2
    29   16   29 1
    30   17   18 1
    31   17   19 1
    32   20   30 1
    33   20   31 1
    34   20   32 1
    35   21   33 1
    36   21   34 1
    37   21   35 1
@<TRIPOS>MOLECULE
ZINC50186687
   35    37     0     0     0
SMALL
USER_CHARGES

@<TRIPOS>ATOM
      1 C1         -0.0187    1.5258    0.0104 C.3       1 <0>        -0.1478
      2 C2          0.0021   -0.0041    0.0020 C.3       1 <0>        -0.0080
      3 C3         -1.4333   -0.5336    0.0129 C.3       1 <0>        -0.1482
      4 C4          0.7074   -0.4901   -1.2379 C.2       1 <0>         0.0675
      5 N1          1.7816   -1.2344   -1.3239 N.2       1 <0>        -0.5082
      6 C5          2.2846   -1.5803   -2.4922 C.2       1 <0>         0.0855
      7 C6          1.6385   -1.1298   -3.5980 C.2       1 <0>        -0.2141
      8 S1          0.3017   -0.2140   -2.8478 S.3       1 <0>         0.1136
      9 C7          3.5206   -2.4363   -2.5956 C.3       1 <0>        -0.0057
     10 C8          4.7317   -1.5531   -2.7511 C.2       1 <0>         0.4102
     11 N2          5.9497   -2.1440   -2.8665 N.am      1 <0>        -0.6505
     12 H1          6.0183   -3.1113   -2.8475 H         1 <0>         0.4221
     13 C9          7.0682   -1.3951   -3.0082 C.2       1 <0>         0.5557
     14 O1          8.1656   -1.9111   -3.1131 O.2       1 <0>        -0.5017
     15 C10         6.9059    0.0663   -3.0311 C.ar      1 <0>        -0.1989
     16 C11         7.9930    0.9263   -3.1721 C.ar      1 <0>        -0.0074
     17 C12         7.7836    2.2887   -3.1867 C.ar      1 <0>        -0.1154
     18 C13         6.5004    2.8074   -3.0622 C.ar      1 <0>        -0.0439
     19 C14         5.4137    1.9743   -2.9215 C.ar      1 <0>        -0.1028
     20 C15         5.6004    0.5904   -2.9044 C.ar      1 <0>         0.1740
     21 N3          4.5571   -0.2668   -2.7731 N.2       1 <0>        -0.5061
     22 Br1         9.2546    3.4615   -3.3770 Br        1 <0>        -0.0343
     23 H2          1.0039    1.9031    0.0027 H         1 <0>         0.0619
     24 H3         -0.5459    1.8868   -0.8726 H         1 <0>         0.0607
     25 H4         -0.5289    1.8773    0.9072 H         1 <0>         0.0722
     26 H5          0.5293   -0.3651    0.8851 H         1 <0>         0.1023
     27 H6         -1.9605   -0.1726   -0.8702 H         1 <0>         0.0607
     28 H7         -1.4185   -1.6235    0.0069 H         1 <0>         0.0615
     29 H8         -1.9435   -0.1821    0.9097 H         1 <0>         0.0726
     30 H9          1.8674   -1.2854   -4.6419 H         1 <0>         0.1922
     31 H10         3.6228   -3.0375   -1.6922 H         1 <0>         0.1193
     32 H11         3.4363   -3.0931   -3.4614 H         1 <0>         0.1190
     33 H12         8.9924    0.5285   -3.2688 H         1 <0>         0.1487
     34 H13         6.3539    3.8773   -3.0756 H         1 <0>         0.1456
     35 H14         4.4211    2.3889   -2.8252 H         1 <0>         0.1479
@<TRIPOS>BOND
     1    1    2 1
     2    1   23 1
     3    1   24 1
     4    1   25 1
     5    2    3 1
     6    2    4 1
     7    2   26 1
     8    3   27 1
     9    3   28 1
    10    3   29 1
    11    4    8 1
    12    4    5 2
    13    5    6 1
    14    6    7 2
    15    6    9 1
    16    7    8 1
    17    7   30 1
    18    9   10 1
    19    9   31 1
    20    9   32 1
    21   10   21 2
    22   10   11 1
    23   11   12 1
    24   11   13 am
    25   13   14 2
    26   13   15 1
    27   15   20 ar
    28   15   16 ar
    29   16   17 ar
    30   16   33 1
    31   17   18 ar
    32   17   22 1
    33   18   19 ar
    34   18   34 1
    35   19   20 ar
    36   19   35 1
    37   20   21 1
@<TRIPOS>MOLECULE
ZINC29779320
   33    35     0     0     0
SMALL
USER_CHARGES

@<TRIPOS>ATOM
      1 C1         -0.0184    1.5028    0.0103 C.3       1 <0>        -0.0806
      2 C2          0.0021   -0.0041    0.0020 C.2       1 <0>         0.0861
      3 C3          0.0059   -0.7057   -1.1580 C.2       1 <0>        -0.2767
      4 S1          0.0324   -2.3787   -0.5350 S.3       1 <0>         0.2217
      5 C4          0.0358   -2.0151    1.1083 C.2       1 <0>         0.2431
      6 N1          0.0227   -0.6995    1.1240 N.2       1 <0>        -0.5479
      7 N2          0.0535   -2.8908    2.1858 N.am      1 <0>        -0.6038
      8 C5          0.0715   -4.2215    1.9726 C.2       1 <0>         0.6114
      9 O1          0.0721   -4.6554    0.8359 O.2       1 <0>        -0.4746
     10 C6          0.0902   -5.1480    3.1126 C.2       1 <0>        -0.2063
     11 C7          0.1151   -6.5073    3.0990 C.2       1 <0>        -0.0002
     12 C8          0.1300   -7.2190    4.3107 C.ar      1 <0>        -0.1264
     13 C9          0.1556   -8.6245    4.5095 C.ar      1 <0>        -0.0043
     14 C10         0.1662   -9.1145    5.7823 C.ar      1 <0>        -0.1357
     15 C11         0.1522   -8.2548    6.8714 C.ar      1 <0>         0.0888
     16 N3          0.1284   -6.9483    6.6909 N.ar      1 <0>        -0.4023
     17 C12         0.1174   -6.4271    5.4851 C.ar      1 <0>         0.0987
     18 S2          0.0939   -4.7660    4.8554 S.3       1 <0>         0.1550
     19 C13         0.1637   -8.8173    8.2695 C.3       1 <0>         0.5274
     20 F1          1.4860   -8.9680    8.7006 F         1 <0>        -0.1639
     21 F2         -0.5105   -7.9435    9.1293 F         1 <0>        -0.1589
     22 F3         -0.4739  -10.0626    8.2763 F         1 <0>        -0.1641
     23 C14         0.1261   -7.2492    1.7873 C.3       1 <0>        -0.1254
     24 H1          1.0042    1.8801    0.0026 H         1 <0>         0.0761
     25 H2         -0.5455    1.8639   -0.8728 H         1 <0>         0.0774
     26 H3         -0.5286    1.8543    0.9071 H         1 <0>         0.0746
     27 H4         -0.0043   -0.3506   -2.1779 H         1 <0>         0.1973
     28 H5          0.0530   -2.5449    3.0921 H         1 <0>         0.4249
     29 H6          0.1663   -9.2967    3.6643 H         1 <0>         0.1604
     30 H7          0.1853  -10.1821    5.9441 H         1 <0>         0.1626
     31 H8          1.1562   -7.4096    1.4692 H         1 <0>         0.0894
     32 H9         -0.3703   -8.2118    1.9101 H         1 <0>         0.0745
     33 H10        -0.3997   -6.6628    1.0338 H         1 <0>         0.1017
@<TRIPOS>BOND
     1    1    2 1
     2    1   24 1
     3    1   25 1
     4    1   26 1
     5    2    6 1
     6    2    3 2
     7    3    4 1
     8    3   27 1
     9    4    5 1
    10    5    6 2
    11    5    7 1
    12    7    8 am
    13    7   28 1
    14    8    9 2
    15    8   10 1
    16   10   18 1
    17   10   11 2
    18   11   12 1
    19   11   23 1
    20   12   17 ar
    21   12   13 ar
    22   13   14 ar
    23   13   29 1
    24   14   15 ar
    25   14   30 1
    26   15   16 ar
    27   15   19 1
    28   16   17 ar
    29   17   18 1
    30   19   20 1
    31   19   21 1
    32   19   22 1
    33   23   31 1
    34   23   32 1
    35   23   33 1
@<TRIPOS>MOLECULE
ZINC66057786
   41    44     0     0     0
SMALL
USER_CHARGES

@<TRIPOS>ATOM
      1 C1         -0.0166    1.3750    0.0096 C.ar      1 <0>        -0.1171
      2 C2          1.1741    2.0778    0.0020 C.ar      1 <0>        -0.1170
      3 C3          2.3723    1.3947   -0.0162 C.ar      1 <0>        -0.1144
      4 C4          2.3927    0.0058   -0.0259 C.ar      1 <0>        -0.0756
      5 C5          1.2078   -0.6945   -0.0131 C.ar      1 <0>        -0.0814
      6 C6          0.0021   -0.0041    0.0020 C.ar      1 <0>        -0.1156
      7 C7          1.1514   -2.1999   -0.0063 C.3       1 <0>        -0.0790
      8 C8          2.4822   -2.7899   -0.4705 C.3       1 <0>        -0.1118
      9 C9          3.6067   -2.1396    0.3326 C.3       1 <0>         0.1270
     10 C10         3.7370   -0.6752   -0.0563 C.3       1 <0>        -0.0740
     11 C11         4.9080   -2.8730    0.1079 C.2       1 <0>         0.5290
     12 O1          5.5000   -3.0138   -0.9406 O.2       1 <0>        -0.4462
     13 N1          5.2724   -3.3380    1.3212 N.am      1 <0>        -0.5725
     14 C12         4.3864   -2.9983    2.2657 C.2       1 <0>         0.6973
     15 O2          4.4967   -3.3035    3.4369 O.2       1 <0>        -0.5203
     16 N2          3.3589   -2.2806    1.7721 N.am      1 <0>        -0.7146
     17 C13         6.4865   -4.1182    1.5734 C.3       1 <0>         0.1598
     18 C14         7.6234   -3.1856    1.9034 C.ar      1 <0>        -0.1562
     19 C15         8.4262   -2.6868    0.8915 C.ar      1 <0>         0.1343
     20 C16         9.4703   -1.8302    1.1960 C.ar      1 <0>        -0.1576
     21 C17         9.7108   -1.4733    2.5096 C.ar      1 <0>        -0.0653
     22 C18         8.9095   -1.9711    3.5196 C.ar      1 <0>        -0.1285
     23 C19         7.8619   -2.8230    3.2164 C.ar      1 <0>         0.0060
     24 Cl1         6.8516   -3.4421    4.4851 Cl        1 <0>        -0.0176
     25 F1          8.1910   -3.0363   -0.3921 F         1 <0>        -0.1175
     26 H1         -0.9580    1.9040    0.0259 H         1 <0>         0.1238
     27 H2          1.1660    3.1577    0.0100 H         1 <0>         0.1240
     28 H3          3.3021    1.9441   -0.0234 H         1 <0>         0.1223
     29 H4         -0.9286   -0.5521    0.0075 H         1 <0>         0.1233
     30 H5          0.9375   -2.5469    1.0046 H         1 <0>         0.0811
     31 H6          0.3579   -2.5327   -0.6753 H         1 <0>         0.0885
     32 H7          2.4852   -3.8664   -0.2993 H         1 <0>         0.0814
     33 H8          2.6238   -2.5845   -1.5315 H         1 <0>         0.0942
     34 H9          4.1517   -0.6063   -1.0619 H         1 <0>         0.1028
     35 H10         4.4080   -0.1764    0.6431 H         1 <0>         0.0870
     36 H11         2.6049   -1.9271    2.2695 H         1 <0>         0.4402
     37 H12         6.3164   -4.7944    2.4112 H         1 <0>         0.1168
     38 H13         6.7377   -4.6969    0.6846 H         1 <0>         0.1101
     39 H14        10.0971   -1.4411    0.4073 H         1 <0>         0.1449
     40 H15        10.5256   -0.8053    2.7468 H         1 <0>         0.1453
     41 H16         9.0985   -1.6919    4.5456 H         1 <0>         0.1431
@<TRIPOS>BOND
     1    1    6 ar
     2    1    2 ar
     3    1   26 1
     4    2    3 ar
     5    2   27 1
     6    3    4 ar
     7    3   28 1
     8    4   10 1
     9    4    5 ar
    10    5    6 ar
    11    5    7 1
    12    6   29 1
    13    7    8 1
    14    7   30 1
    15    7   31 1
    16    8    9 1
    17    8   32 1
    18    8   33 1
    19    9   16 1
    20    9   10 1
    21    9   11 1
    22   10   34 1
    23   10   35 1
    24   11   12 2
    25   11   13 am
    26   13   14 am
    27   13   17 1
    28   14   15 2
    29   14   16 am
    30   16   36 1
    31   17   18 1
    32   17   37 1
    33   17   38 1
    34   18   23 ar
    35   18   19 ar
    36   19   20 ar
    37   19   25 1
    38   20   21 ar
    39   20   39 1
    40   21   22 ar
    41   21   40 1
    42   22   23 ar
    43   22   41 1
    44   23   24 1
@<TRIPOS>MOLECULE
ZINC04690148
   38    41     0     0     0
SMALL
USER_CHARGES
3-[(2-chloro-6-fluoro-phenyl)methyl]-5-(1H-indol-3-ylmethylene)thiazolidine-2,4-dione
@<TRIPOS>ATOM
      1 C1         -1.2825   -4.3043   -1.3271 C.ar      1 <0>        -0.1324
      2 C2         -2.5997   -4.5859   -0.9941 C.ar      1 <0>        -0.1034
      3 C3         -3.3753   -3.6500   -0.3457 C.ar      1 <0>        -0.1196
      4 C4         -2.8379   -2.4089   -0.0192 C.ar      1 <0>         0.0838
      5 C5         -1.5050   -2.1257   -0.3569 C.ar      1 <0>        -0.0704
      6 C6         -0.7323   -3.0811   -1.0120 C.ar      1 <0>        -0.0819
      7 C7         -1.2489   -0.7532    0.1198 C.2       1 <0>        -0.2107
      8 C8         -2.4098   -0.3220    0.6987 C.2       1 <0>         0.1701
      9 N1         -3.3519   -1.2955    0.6134 N.pl3     1 <0>        -0.5784
     10 H1         -4.2575   -1.2205    0.9527 H         1 <0>         0.4215
     11 C9          0.0021   -0.0041    0.0020 C.2       1 <0>         0.1481
     12 C10        -0.0266    1.3333   -0.2506 C.2       1 <0>        -0.2496
     13 C11        -1.1336    2.1712   -0.5817 C.2       1 <0>         0.5515
     14 O1         -2.2590    1.7153   -0.6757 O.2       1 <0>        -0.4671
     15 N2         -0.9017    3.4573   -0.7793 N.am      1 <0>        -0.5738
     16 C12         0.3485    3.9615   -0.6818 C.2       1 <0>         0.5503
     17 O2          0.7223    5.1086   -0.8385 O.2       1 <0>        -0.3997
     18 S1          1.3130    2.5167   -0.2657 S.3       1 <0>        -0.0723
     19 C13        -2.0151    4.3482   -1.1152 C.3       1 <0>         0.1381
     20 C14        -2.1860    4.3964   -2.6117 C.ar      1 <0>        -0.1555
     21 C15        -3.0231    3.4919   -3.2428 C.ar      1 <0>         0.1400
     22 C16        -3.1795    3.5376   -4.6177 C.ar      1 <0>        -0.1578
     23 C17        -2.5003    4.4857   -5.3595 C.ar      1 <0>        -0.0645
     24 C18        -1.6647    5.3885   -4.7295 C.ar      1 <0>        -0.1270
     25 C19        -1.5112    5.3477   -3.3548 C.ar      1 <0>         0.0012
     26 Cl1        -0.4669    6.4867   -2.5638 Cl        1 <0>        -0.0237
     27 F1         -3.6871    2.5656   -2.5174 F         1 <0>        -0.1117
     28 H2         -0.6858   -5.0473   -1.8353 H         1 <0>         0.1262
     29 H3         -3.0210   -5.5479   -1.2460 H         1 <0>         0.1278
     30 H4         -4.3996   -3.8793   -0.0914 H         1 <0>         0.1223
     31 H5          0.2932   -2.8642   -1.2722 H         1 <0>         0.1245
     32 H6         -2.5560    0.6470    1.1526 H         1 <0>         0.1782
     33 H7          0.9484   -0.5120    0.1154 H         1 <0>         0.1520
     34 H8         -2.9306    3.9743   -0.6568 H         1 <0>         0.1152
     35 H9         -1.8044    5.3500   -0.7411 H         1 <0>         0.1144
     36 H10        -3.8326    2.8326   -5.1105 H         1 <0>         0.1444
     37 H11        -2.6229    4.5213   -6.4319 H         1 <0>         0.1459
     38 H12        -1.1345    6.1289   -5.3100 H         1 <0>         0.1440
@<TRIPOS>BOND
     1    1    6 ar
     2    1    2 ar
     3    1   28 1
     4    2    3 ar
     5    2   29 1
     6    3    4 ar
     7    3   30 1
     8    4    9 1
     9    4    5 ar
    10    5    6 ar
    11    5    7 1
    12    6   31 1
    13    7    8 2
    14    7   11 1
    15    8    9 1
    16    8   32 1
    17    9   10 1
    18   11   12 2
    19   11   33 1
    20   12   18 1
    21   12   13 1
    22   13   14 2
    23   13   15 am
    24   15   16 am
    25   15   19 1
    26   16   17 2
    27   16   18 1
    28   19   20 1
    29   19   34 1
    30   19   35 1
    31   20   25 ar
    32   20   21 ar
    33   21   22 ar
    34   21   27 1
    35   22   23 ar
    36   22   36 1
    37   23   24 ar
    38   23   37 1
    39   24   25 ar
    40   24   38 1
    41   25   26 1
@<TRIPOS>MOLECULE
ZINC08548706
   52    55     0     0     0
SMALL
USER_CHARGES
2-chloro-N-(3,6,6-trimethyl-1-phenyl-5,7-dihydro-4H-indazol-4-yl)-benzamide
@<TRIPOS>ATOM
      1 C1          1.6317   -0.2856    2.0874 C.3       1 <0>        -0.0754
      2 C2          2.0997    1.1430    2.1934 C.2       1 <0>         0.0982
      3 C3          1.8935    2.1437    1.2458 C.2       1 <0>        -0.2501
      4 C4          2.4659    3.2842    1.7088 C.2       1 <0>         0.1156
      5 N1          3.0126    3.0130    2.9085 N.pl3     1 <0>        -0.3171
      6 N2          2.7713    1.6606    3.1934 N.2       1 <0>        -0.2887
      7 C5          3.6998    3.9199    3.7272 C.ar      1 <0>         0.1479
      8 C6          4.8543    3.5232    4.3886 C.ar      1 <0>        -0.1063
      9 C7          5.5316    4.4203    5.1912 C.ar      1 <0>        -0.1013
     10 C8          5.0557    5.7096    5.3439 C.ar      1 <0>        -0.1167
     11 C9          3.9032    6.1061    4.6906 C.ar      1 <0>        -0.0996
     12 C10         3.2242    5.2149    3.8829 C.ar      1 <0>        -0.1255
     13 C11         2.4600    4.5963    0.9652 C.3       1 <0>        -0.0520
     14 C12         2.1003    4.3202   -0.4999 C.3       1 <0>        -0.0523
     15 C13         0.8413    3.4512   -0.5624 C.3       1 <0>        -0.1200
     16 C14         1.1714    2.0353   -0.0741 C.3       1 <0>         0.2332
     17 H1          1.8098    1.5353   -0.8025 H         1 <0>         0.1014
     18 N3         -0.0671    1.2729    0.1021 N.am      1 <0>        -0.7183
     19 C15        -0.5824    0.5765   -0.9304 C.2       1 <0>         0.5552
     20 O1         -0.0690    0.6501   -2.0297 O.2       1 <0>        -0.5093
     21 C16        -1.7716   -0.2766   -0.7259 C.ar      1 <0>        -0.1314
     22 C17        -2.3639   -0.3636    0.5355 C.ar      1 <0>        -0.0755
     23 C18        -3.4737   -1.1611    0.7194 C.ar      1 <0>        -0.1241
     24 C19        -4.0017   -1.8746   -0.3427 C.ar      1 <0>        -0.0804
     25 C20        -3.4211   -1.7941   -1.5950 C.ar      1 <0>        -0.1210
     26 C21        -2.3118   -0.9953   -1.7950 C.ar      1 <0>         0.0142
     27 Cl1        -1.5877   -0.8896   -3.3693 Cl        1 <0>        -0.0287
     28 C22         3.2591    3.5886   -1.1802 C.3       1 <0>        -0.1491
     29 C23         1.8413    5.6454   -1.2195 C.3       1 <0>        -0.1416
     30 H2          0.6750   -0.3933    2.5983 H         1 <0>         0.0774
     31 H3          1.5149   -0.5526    1.0371 H         1 <0>         0.0796
     32 H4          2.3669   -0.9440    2.5500 H         1 <0>         0.0760
     33 H5          5.2244    2.5152    4.2726 H         1 <0>         0.1322
     34 H6          6.4318    4.1134    5.7029 H         1 <0>         0.1335
     35 H7          5.5849    6.4082    5.9750 H         1 <0>         0.1311
     36 H8          3.5335    7.1135    4.8124 H         1 <0>         0.1342
     37 H9          2.3240    5.5251    3.3732 H         1 <0>         0.1293
     38 H10         3.4476    5.0542    1.0207 H         1 <0>         0.0856
     39 H11         1.7197    5.2644    1.4053 H         1 <0>         0.0884
     40 H12         0.4816    3.4063   -1.5903 H         1 <0>         0.0795
     41 H13         0.0694    3.8841    0.0739 H         1 <0>         0.0677
     42 H14        -0.5184    1.2725    0.9607 H         1 <0>         0.3982
     43 H15        -1.9539    0.1929    1.3653 H         1 <0>         0.1328
     44 H16        -3.9324   -1.2289    1.6948 H         1 <0>         0.1357
     45 H17        -4.8710   -2.4976   -0.1924 H         1 <0>         0.1376
     46 H18        -3.8382   -2.3534   -2.4194 H         1 <0>         0.1406
     47 H19         3.0038    3.3930   -2.2217 H         1 <0>         0.0634
     48 H20         4.1554    4.2072   -1.1358 H         1 <0>         0.0555
     49 H21         3.4435    2.6444   -0.6678 H         1 <0>         0.0608
     50 H22         1.0156    6.1666   -0.7351 H         1 <0>         0.0574
     51 H23         2.7376    6.2641   -1.1751 H         1 <0>         0.0592
     52 H24         1.5863    5.4495   -2.2610 H         1 <0>         0.0632
@<TRIPOS>BOND
     1    1    2 1
     2    1   30 1
     3    1   31 1
     4    1   32 1
     5    2    6 2
     6    2    3 1
     7    3   16 1
     8    3    4 2
     9    4    5 1
    10    4   13 1
    11    5    6 1
    12    5    7 1
    13    7   12 ar
    14    7    8 ar
    15    8    9 ar
    16    8   33 1
    17    9   10 ar
    18    9   34 1
    19   10   11 ar
    20   10   35 1
    21   11   12 ar
    22   11   36 1
    23   12   37 1
    24   13   14 1
    25   13   38 1
    26   13   39 1
    27   14   15 1
    28   14   28 1
    29   14   29 1
    30   15   16 1
    31   15   40 1
    32   15   41 1
    33   16   17 1
    34   16   18 1
    35   18   19 am
    36   18   42 1
    37   19   20 2
    38   19   21 1
    39   21   26 ar
    40   21   22 ar
    41   22   23 ar
    42   22   43 1
    43   23   24 ar
    44   23   44 1
    45   24   25 ar
    46   24   45 1
    47   25   26 ar
    48   25   46 1
    49   26   27 1
    50   28   47 1
    51   28   48 1
    52   28   49 1
    53   29   50 1
    54   29   51 1
    55   29   52 1
@<TRIPOS>MOLECULE
ZINC21728730
   47    51     0     0     0
SMALL
USER_CHARGES
(4S)-4-(4-fluorophenyl)-1,3-diphenyl-5,7-dihydro-4H-pyrazolo[4,5-e]pyridin-6-one
@<TRIPOS>ATOM
      1 C1         -3.4903    3.8458    0.0394 C.ar      1 <0>        -0.1076
      2 C2         -2.3575    4.2471    0.7243 C.ar      1 <0>        -0.1188
      3 C3         -1.2274    3.4548    0.7182 C.ar      1 <0>        -0.0872
      4 C4         -1.2291    2.2487    0.0203 C.ar      1 <0>        -0.0177
      5 C5         -2.3712    1.8520   -0.6723 C.ar      1 <0>        -0.0974
      6 C6         -3.4975    2.6496   -0.6550 C.ar      1 <0>        -0.1190
      7 C7         -0.0169    1.3929    0.0097 C.2       1 <0>         0.1642
      8 C8          0.0021   -0.0041    0.0020 C.2       1 <0>        -0.2539
      9 C9          1.3082   -0.4077   -0.0200 C.2       1 <0>         0.3320
     10 N1          2.0821    0.6992   -0.0151 N.pl3     1 <0>        -0.3193
     11 N2          1.2335    1.8180    0.0000 N.2       1 <0>        -0.2686
     12 C10         3.4826    0.7265   -0.0232 C.ar      1 <0>         0.1490
     13 C11         4.2014   -0.2469    0.6582 C.ar      1 <0>        -0.1436
     14 C12         5.5822   -0.2206    0.6436 C.ar      1 <0>        -0.0909
     15 C13         6.2489    0.7802   -0.0392 C.ar      1 <0>        -0.1175
     16 C14         5.5360    1.7542   -0.7140 C.ar      1 <0>        -0.0941
     17 C15         4.1551    1.7301   -0.7079 C.ar      1 <0>        -0.1052
     18 N3          1.6627   -1.7564   -0.0464 N.am      1 <0>        -0.6650
     19 C16         0.6874   -2.6659   -0.2560 C.2       1 <0>         0.5397
     20 O1          0.9366   -3.8421   -0.0960 O.2       1 <0>        -0.5073
     21 C17        -0.6974   -2.2664   -0.6807 C.3       1 <0>        -0.1366
     22 C18        -1.1455   -0.9815    0.0230 C.3       1 <0>         0.0339
     23 H1         -2.0185   -0.5401   -0.4800 H         1 <0>         0.1125
     24 C19        -1.5243   -1.2892    1.4488 C.ar      1 <0>        -0.0894
     25 C20        -0.5969   -1.8563    2.3029 C.ar      1 <0>        -0.0833
     26 C21        -0.9418   -2.1344    3.6119 C.ar      1 <0>        -0.1494
     27 C22        -2.2199   -1.8546    4.0650 C.ar      1 <0>         0.0991
     28 C23        -3.1495   -1.2915    3.2072 C.ar      1 <0>        -0.1492
     29 C24        -2.8008   -1.0093    1.9000 C.ar      1 <0>        -0.0766
     30 F1         -2.5595   -2.1304    5.3432 F         1 <0>        -0.1390
     31 H2         -4.3723    4.4690    0.0466 H         1 <0>         0.1252
     32 H3         -2.3572    5.1822    1.2646 H         1 <0>         0.1266
     33 H4         -0.3434    3.7692    1.2530 H         1 <0>         0.1261
     34 H5         -2.3764    0.9203   -1.2184 H         1 <0>         0.1290
     35 H6         -4.3845    2.3413   -1.1884 H         1 <0>         0.1285
     36 H7          3.6812   -1.0262    1.1954 H         1 <0>         0.1256
     37 H8          6.1418   -0.9796    1.1699 H         1 <0>         0.1369
     38 H9          7.3287    0.8014   -0.0452 H         1 <0>         0.1333
     39 H10         6.0595    2.5347   -1.2460 H         1 <0>         0.1362
     40 H11         3.5988    2.4913   -1.2348 H         1 <0>         0.1373
     41 H12         2.7118   -2.0523    0.1012 H         1 <0>         0.4380
     42 H13        -0.7124   -2.0943   -1.7670 H         1 <0>         0.1156
     43 H14        -1.4048   -3.0696   -0.4270 H         1 <0>         0.1195
     44 H15         0.3987   -2.0782    1.9481 H         1 <0>         0.1209
     45 H16        -0.2159   -2.5737    4.2801 H         1 <0>         0.1337
     46 H17        -4.1468   -1.0731    3.5594 H         1 <0>         0.1377
     47 H18        -3.5256   -0.5698    1.2308 H         1 <0>         0.1360
@<TRIPOS>BOND
     1    1    6 ar
     2    1    2 ar
     3    1   31 1
     4    2    3 ar
     5    2   32 1
     6    3    4 ar
     7    3   33 1
     8    4    5 ar
     9    4    7 1
    10    5    6 ar
    11    5   34 1
    12    6   35 1
    13    7   11 2
    14    7    8 1
    15    8   22 1
    16    8    9 2
    17    9   10 1
    18    9   18 1
    19   10   11 1
    20   10   12 1
    21   12   17 ar
    22   12   13 ar
    23   13   14 ar
    24   13   36 1
    25   14   15 ar
    26   14   37 1
    27   15   16 ar
    28   15   38 1
    29   16   17 ar
    30   16   39 1
    31   17   40 1
    32   18   19 am
    33   18   41 1
    34   19   20 2
    35   19   21 1
    36   21   22 1
    37   21   42 1
    38   21   43 1
    39   22   23 1
    40   22   24 1
    41   24   29 ar
    42   24   25 ar
    43   25   26 ar
    44   25   44 1
    45   26   27 ar
    46   26   45 1
    47   27   28 ar
    48   27   30 1
    49   28   29 ar
    50   28   46 1
    51   29   47 1
@<TRIPOS>MOLECULE
ZINC36954576
   31    33     0     0     0
SMALL
USER_CHARGES

@<TRIPOS>ATOM
      1 C1         -0.0167    1.3825    0.0096 C.ar      1 <0>        -0.1715
      2 C2          1.1630    2.0944    0.0022 C.ar      1 <0>        -0.0067
      3 C3          2.3854    1.4180   -0.0131 C.ar      1 <0>        -0.1087
      4 C4          2.4014    0.0138   -0.0208 C.ar      1 <0>         0.2820
      5 C5          1.2035   -0.6870   -0.0132 C.ar      1 <0>        -0.1936
      6 C6          0.0021   -0.0041    0.0020 C.ar      1 <0>         0.0436
      7 Cl1        -1.4924   -0.8873    0.0121 Cl        1 <0>        -0.0563
      8 N1          3.6113   -0.6710   -0.0366 N.pl3     1 <0>        -0.7252
      9 C7          3.6238   -2.1359   -0.0446 C.3       1 <0>         0.1589
     10 C8          5.0488   -2.6260   -0.0614 C.ar      1 <0>        -0.0757
     11 C9          5.6100   -3.1552    1.0863 C.ar      1 <0>        -0.0751
     12 C10         6.9196   -3.6058    1.0735 C.ar      1 <0>         0.0501
     13 C11         7.6691   -3.5251   -0.0980 C.ar      1 <0>         0.0508
     14 C12         7.1012   -2.9942   -1.2442 C.ar      1 <0>        -0.0750
     15 C13         5.7907   -2.5509   -1.2260 C.ar      1 <0>        -0.0720
     16 Br1         5.0151   -1.8335   -2.7944 Br        1 <0>        -0.0153
     17 O1          8.9145   -4.0280    0.1456 O.3       1 <0>        -0.3010
     18 C14         9.0510   -4.0397    1.5789 C.3       1 <0>         0.2118
     19 O2          7.6958   -4.1594    2.0506 O.3       1 <0>        -0.3012
     20 C15         3.6147    2.1523   -0.0214 C.1       1 <0>         0.2533
     21 N2          4.5900    2.7348   -0.0280 N.1       1 <0>        -0.4173
     22 H1         -0.9607    1.9069    0.0260 H         1 <0>         0.1419
     23 H2          1.1427    3.1742    0.0079 H         1 <0>         0.1424
     24 H3          1.2101   -1.7670   -0.0190 H         1 <0>         0.1436
     25 H4          4.4471   -0.1788   -0.0422 H         1 <0>         0.4062
     26 H5          3.1219   -2.5084    0.8485 H         1 <0>         0.0877
     27 H6          3.1042   -2.4989   -0.9314 H         1 <0>         0.0913
     28 H7          5.0270   -3.2167    1.9933 H         1 <0>         0.1504
     29 H8          7.6801   -2.9301   -2.1537 H         1 <0>         0.1501
     30 H9          9.6452   -4.8952    1.9000 H         1 <0>         0.1393
     31 H10         9.4975   -3.1090    1.9288 H         1 <0>         0.0913
@<TRIPOS>BOND
     1    1    6 ar
     2    1    2 ar
     3    1   22 1
     4    2    3 ar
     5    2   23 1
     6    3    4 ar
     7    3   20 1
     8    4    5 ar
     9    4    8 1
    10    5    6 ar
    11    5   24 1
    12    6    7 1
    13    8    9 1
    14    8   25 1
    15    9   10 1
    16    9   26 1
    17    9   27 1
    18   10   15 ar
    19   10   11 ar
    20   11   12 ar
    21   11   28 1
    22   12   19 1
    23   12   13 ar
    24   13   14 ar
    25   13   17 1
    26   14   15 ar
    27   14   29 1
    28   15   16 1
    29   17   18 1
    30   18   19 1
    31   18   30 1
    32   18   31 1
    33   20   21 3
@<TRIPOS>MOLECULE
ZINC57438536
   38    40     0     0     0
SMALL
USER_CHARGES

@<TRIPOS>ATOM
      1 C1         -0.2721   -5.1885   -6.0585 C.3       1 <0>        -0.1529
      2 C2         -0.1984   -5.0219   -4.5393 C.3       1 <0>         0.0479
      3 O1          0.4658   -3.7960   -4.2262 O.3       1 <0>        -0.2976
      4 C3          0.6155   -3.4940   -2.9087 C.ar      1 <0>         0.1181
      5 C4          0.1397   -4.3597   -1.9439 C.ar      1 <0>        -0.1744
      6 C5          0.2958   -4.0459   -0.5883 C.ar      1 <0>        -0.0417
      7 C6          0.9339   -2.8557   -0.2184 C.ar      1 <0>        -0.0864
      8 C7          1.4056   -1.9977   -1.1879 C.ar      1 <0>        -0.0842
      9 C8          1.2546   -2.3131   -2.5329 C.ar      1 <0>         0.1176
     10 O2          1.7266   -1.4662   -3.4841 O.3       1 <0>        -0.4700
     11 Br1         2.2666   -0.3903   -0.6870 Br        1 <0>        -0.0153
     12 C9         -0.2087   -4.9626    0.4428 C.2       1 <0>        -0.0024
     13 C10        -0.1911   -6.2973    0.2280 C.2       1 <0>        -0.2380
     14 C11         0.4990   -6.9252   -0.9713 C.3       1 <0>         0.1025
     15 O3          1.3700   -7.9540   -0.5014 O.3       1 <0>        -0.3038
     16 C12         0.9186   -8.8558    0.4008 C.ar      1 <0>         0.1781
     17 C13         1.5375  -10.0982    0.4872 C.ar      1 <0>        -0.1615
     18 C14         1.1023  -11.0282    1.4087 C.ar      1 <0>        -0.0502
     19 C15         0.0472  -10.7406    2.2596 C.ar      1 <0>        -0.1627
     20 C16        -0.5838   -9.5162    2.1872 C.ar      1 <0>        -0.0276
     21 C17        -0.1550   -8.5736    1.2553 C.ar      1 <0>        -0.2425
     22 C18        -0.8373   -7.2624    1.1462 C.2       1 <0>         0.4409
     23 O4         -1.8540   -7.0013    1.7639 O.2       1 <0>        -0.4347
     24 H1         -0.8265   -4.3546   -6.4890 H         1 <0>         0.0688
     25 H2          0.7365   -5.2060   -6.4714 H         1 <0>         0.0699
     26 H3         -0.7788   -6.1236   -6.2973 H         1 <0>         0.0822
     27 H4         -1.2071   -5.0044   -4.1264 H         1 <0>         0.0654
     28 H5          0.3560   -5.8558   -4.1088 H         1 <0>         0.0643
     29 H6         -0.3521   -5.2763   -2.2342 H         1 <0>         0.1447
     30 H7          1.0558   -2.6102    0.8262 H         1 <0>         0.1470
     31 H8          1.0875   -0.7984   -3.7683 H         1 <0>         0.3945
     32 H9         -0.5936   -4.5703    1.3725 H         1 <0>         0.1466
     33 H10        -0.2465   -7.3530   -1.6416 H         1 <0>         0.0807
     34 H11         1.0774   -6.1677   -1.5003 H         1 <0>         0.1283
     35 H12         2.3612  -10.3360   -0.1695 H         1 <0>         0.1397
     36 H13         1.5888  -11.9906    1.4672 H         1 <0>         0.1368
     37 H14        -0.2814  -11.4754    2.9796 H         1 <0>         0.1343
     38 H15        -1.4065   -9.2895    2.8492 H         1 <0>         0.1378
@<TRIPOS>BOND
     1    1    2 1
     2    1   24 1
     3    1   25 1
     4    1   26 1
     5    2    3 1
     6    2   27 1
     7    2   28 1
     8    3    4 1
     9    4    9 ar
    10    4    5 ar
    11    5    6 ar
    12    5   29 1
    13    6    7 ar
    14    6   12 1
    15    7    8 ar
    16    7   30 1
    17    8    9 ar
    18    8   11 1
    19    9   10 1
    20   10   31 1
    21   12   13 2
    22   12   32 1
    23   13   22 1
    24   13   14 1
    25   14   15 1
    26   14   33 1
    27   14   34 1
    28   15   16 1
    29   16   21 ar
    30   16   17 ar
    31   17   18 ar
    32   17   35 1
    33   18   19 ar
    34   18   36 1
    35   19   20 ar
    36   19   37 1
    37   20   21 ar
    38   20   38 1
    39   21   22 1
    40   22   23 2
@<TRIPOS>MOLECULE
ZINC04469030
   50    53     0     0     0
SMALL
USER_CHARGES
(4-isopropylphenyl)methylBLAHdione
@<TRIPOS>ATOM
      1 C1         -4.3403    3.3142    5.5550 C.3       1 <0>        -0.1449
      2 C2         -2.8185    3.1741    5.4815 C.3       1 <0>        -0.0599
      3 C3         -2.3698    2.0122    6.3702 C.3       1 <0>        -0.1449
      4 C4         -2.4069    2.9050    4.0570 C.ar      1 <0>        -0.0634
      5 C5         -1.5587    3.7807    3.4054 C.ar      1 <0>        -0.1227
      6 C6         -1.1805    3.5333    2.0990 C.ar      1 <0>        -0.0925
      7 C7         -1.6508    2.4105    1.4441 C.ar      1 <0>        -0.1270
      8 C8         -2.5036    1.5378    2.0938 C.ar      1 <0>        -0.0880
      9 C9         -2.8773    1.7821    3.4021 C.ar      1 <0>        -0.1191
     10 C10        -1.2389    2.1411    0.0198 C.3       1 <0>         0.1602
     11 N1         -0.0161    1.3343    0.0094 N.am      1 <0>        -0.5721
     12 C11         1.2310    1.8481    0.0002 C.2       1 <0>         0.5378
     13 O1          1.5416    3.0200    0.0030 O.2       1 <0>        -0.4507
     14 C12         2.1604    0.6551   -0.0147 C.3       1 <0>         0.1715
     15 C13         3.0323    0.6493    1.2347 C.3       1 <0>        -0.1117
     16 C14         4.0730    1.7683    1.1043 C.3       1 <0>        -0.1278
     17 C15         5.0581    1.3875    0.0013 C.3       1 <0>        -0.0855
     18 C16         4.3272    1.0091   -1.2600 C.ar      1 <0>        -0.0463
     19 C17         2.9932    0.6623   -1.2656 C.ar      1 <0>        -0.0962
     20 C18         2.3813    0.3050   -2.4595 C.ar      1 <0>        -0.0988
     21 C19         3.0960    0.2998   -3.6398 C.ar      1 <0>        -0.1225
     22 C20         4.4321    0.6535   -3.6350 C.ar      1 <0>        -0.1009
     23 C21         5.0433    1.0063   -2.4493 C.ar      1 <0>        -0.1223
     24 N2          1.2535   -0.5009   -0.0123 N.am      1 <0>        -0.7174
     25 C22         0.0021   -0.0041    0.0020 C.2       1 <0>         0.7033
     26 O2         -0.9988   -0.6936    0.0080 O.2       1 <0>        -0.5354
     27 H1         -4.8071    2.3916    5.2100 H         1 <0>         0.0573
     28 H2         -4.6379    3.5089    6.5853 H         1 <0>         0.0594
     29 H3         -4.6599    4.1419    4.9219 H         1 <0>         0.0565
     30 H4         -2.3516    4.0967    5.8265 H         1 <0>         0.0782
     31 H5         -1.2857    1.9124    6.3179 H         1 <0>         0.0553
     32 H6         -2.6675    2.2069    7.4005 H         1 <0>         0.0597
     33 H7         -2.8367    1.0897    6.0253 H         1 <0>         0.0571
     34 H8         -1.1913    4.6579    3.9171 H         1 <0>         0.1232
     35 H9         -0.5178    4.2175    1.5900 H         1 <0>         0.1255
     36 H10        -2.8745    0.6629    1.5807 H         1 <0>         0.1279
     37 H11        -3.5397    1.0978    3.9113 H         1 <0>         0.1232
     38 H12        -1.0547    3.0866   -0.4902 H         1 <0>         0.1037
     39 H13        -2.0349    1.6009   -0.4927 H         1 <0>         0.1062
     40 H14         2.4135    0.8244    2.1149 H         1 <0>         0.0788
     41 H15         3.5370   -0.3125    1.3257 H         1 <0>         0.0899
     42 H16         4.6064    1.8843    2.0477 H         1 <0>         0.0812
     43 H17         3.5779    2.7044    0.8460 H         1 <0>         0.0862
     44 H18         5.6604    0.5422    0.3343 H         1 <0>         0.0828
     45 H19         5.7125    2.2347   -0.2037 H         1 <0>         0.0834
     46 H20         1.3371    0.0292   -2.4645 H         1 <0>         0.1177
     47 H21         2.6128    0.0205   -4.5644 H         1 <0>         0.1268
     48 H22         4.9958    0.6541   -4.5563 H         1 <0>         0.1276
     49 H23         6.0874    1.2823   -2.4463 H         1 <0>         0.1280
     50 H24         1.5065   -1.4373   -0.0194 H         1 <0>         0.4413
@<TRIPOS>BOND
     1    1    2 1
     2    1   27 1
     3    1   28 1
     4    1   29 1
     5    2    3 1
     6    2    4 1
     7    2   30 1
     8    3   31 1
     9    3   32 1
    10    3   33 1
    11    4    9 ar
    12    4    5 ar
    13    5    6 ar
    14    5   34 1
    15    6    7 ar
    16    6   35 1
    17    7    8 ar
    18    7   10 1
    19    8    9 ar
    20    8   36 1
    21    9   37 1
    22   10   11 1
    23   10   38 1
    24   10   39 1
    25   11   25 am
    26   11   12 am
    27   12   13 2
    28   12   14 1
    29   14   19 1
    30   14   15 1
    31   14   24 1
    32   15   16 1
    33   15   40 1
    34   15   41 1
    35   16   17 1
    36   16   42 1
    37   16   43 1
    38   17   18 1
    39   17   44 1
    40   17   45 1
    41   18   23 ar
    42   18   19 ar
    43   19   20 ar
    44   20   21 ar
    45   20   46 1
    46   21   22 ar
    47   21   47 1
    48   22   23 ar
    49   22   48 1
    50   23   49 1
    51   24   25 am
    52   24   50 1
    53   25   26 2
@<TRIPOS>MOLECULE
ZINC07505311
   32    35     0     0     0
SMALL
USER_CHARGES
N-BLAHylthiophene-2-sulfonamide
@<TRIPOS>ATOM
      1 C1         -3.9411    7.3485   -5.6447 C.ar      1 <0>        -0.1102
      2 C2         -3.9195    5.9576   -5.6994 C.ar      1 <0>        -0.1134
      3 C3         -3.2689    5.2315   -4.7457 C.ar      1 <0>        -0.0921
      4 C4         -2.6149    5.8940   -3.7003 C.ar      1 <0>        -0.0053
      5 C5         -2.6344    7.3039   -3.6397 C.ar      1 <0>        -0.0425
      6 C6         -3.3165    8.0215   -4.6391 C.ar      1 <0>        -0.1043
      7 C7         -1.9791    7.9810   -2.5921 C.ar      1 <0>        -0.0832
      8 C8         -1.3236    7.2749   -1.6321 C.ar      1 <0>        -0.0625
      9 C9         -1.2832    5.8935   -1.6569 C.ar      1 <0>        -0.1530
     10 C10        -1.9048    5.1259   -2.6587 C.ar      1 <0>         0.1186
     11 N1         -1.7762    3.7910   -2.5439 N.2       1 <0>        -0.5234
     12 C11        -1.1117    3.2272   -1.5588 C.2       1 <0>         0.3578
     13 S1         -0.5639    4.6440   -0.6170 S.3       1 <0>         0.0693
     14 N2         -0.8975    1.8855   -1.3122 N.pl3     1 <0>        -0.9876
     15 S2         -0.0172    1.4168    0.0098 S.o2      1 <0>         2.7196
     16 O1          0.0021   -0.0041    0.0020 O.2       1 <0>        -0.9157
     17 O2          1.1718    2.1948    0.0027 O.2       1 <0>        -0.9139
     18 C12        -0.9267    1.9002    1.4394 C.2       1 <0>        -0.7910
     19 C13        -1.8619    1.2048    2.1317 C.2       1 <0>         0.0126
     20 C14        -2.4510    1.7904    3.2365 C.2       1 <0>        -0.1966
     21 C15        -2.0761    3.0427    3.5951 C.2       1 <0>        -0.1224
     22 S3         -0.8501    3.4300    2.3565 S.3       1 <0>         0.1913
     23 H1         -4.4634    7.9025   -6.4107 H         1 <0>         0.1272
     24 H2         -4.4244    5.4475   -6.5064 H         1 <0>         0.1275
     25 H3         -3.2585    4.1528   -4.7966 H         1 <0>         0.1342
     26 H4         -3.3427    9.1008   -4.6101 H         1 <0>         0.1341
     27 H5         -1.9970    9.0601   -2.5516 H         1 <0>         0.1436
     28 H6         -0.8248    7.8044   -0.8338 H         1 <0>         0.1359
     29 H7         -1.2626    1.2175   -1.9134 H         1 <0>         0.4439
     30 H8         -2.1422    0.2080    1.8248 H         1 <0>         0.1515
     31 H9         -3.1985    1.2579    3.8058 H         1 <0>         0.1497
     32 H10        -2.4256    3.6476    4.4187 H         1 <0>         0.2003
@<TRIPOS>BOND
     1    1    6 ar
     2    1    2 ar
     3    1   23 1
     4    2    3 ar
     5    2   24 1
     6    3    4 ar
     7    3   25 1
     8    4   10 ar
     9    4    5 ar
    10    5    6 ar
    11    5    7 ar
    12    6   26 1
    13    7    8 ar
    14    7   27 1
    15    8    9 ar
    16    8   28 1
    17    9   13 1
    18    9   10 ar
    19   10   11 1
    20   11   12 2
    21   12   13 1
    22   12   14 1
    23   14   15 1
    24   14   29 1
    25   15   16 2
    26   15   17 2
    27   15   18 1
    28   18   22 1
    29   18   19 2
    30   19   20 1
    31   19   30 1
    32   20   21 2
    33   20   31 1
    34   21   22 1
    35   21   32 1
@<TRIPOS>MOLECULE
ZINC21114589
   33    35     0     0     0
SMALL
USER_CHARGES
3-(4-bromophenyl)-5-[(4-chlorophenyl)methyl]-1H-1,2,4-triazin-6-one
@<TRIPOS>ATOM
      1 C1         -4.1320   -1.3775    1.2304 C.ar      1 <0>        -0.0908
      2 C2         -5.1952   -0.4945    1.2455 C.ar      1 <0>        -0.1076
      3 C3         -5.7404   -0.0482    0.0549 C.ar      1 <0>        -0.0327
      4 C4         -5.2172   -0.4816   -1.1503 C.ar      1 <0>        -0.1077
      5 C5         -4.1503   -1.3602   -1.1642 C.ar      1 <0>        -0.0908
      6 C6         -3.6060   -1.8058    0.0259 C.ar      1 <0>        -0.0662
      7 C7         -2.4428   -2.7638    0.0100 C.3       1 <0>        -0.0227
      8 C8         -1.1518   -1.9863    0.0024 C.2       1 <0>         0.1433
      9 C9          0.1008   -2.6563   -0.0132 C.2       1 <0>         0.4442
     10 O1          0.1556   -3.8747   -0.0198 O.2       1 <0>        -0.5052
     11 N1          1.2293   -1.9152   -0.0200 N.am      1 <0>        -0.4367
     12 H1          2.2119   -2.4096   -0.0275 H         1 <0>         0.4806
     13 N2          1.1561   -0.6298   -0.0177 N.2       1 <0>        -0.2391
     14 C10         0.0021   -0.0041    0.0020 C.2       1 <0>         0.2563
     15 N3         -1.1577   -0.6744    0.0095 N.2       1 <0>        -0.4140
     16 C11        -0.0180    1.4790    0.0102 C.ar      1 <0>        -0.0135
     17 C12        -1.2331    2.1618    0.0196 C.ar      1 <0>        -0.0661
     18 C13        -1.2462    3.5416    0.0335 C.ar      1 <0>        -0.0943
     19 C14        -0.0556    4.2475    0.0255 C.ar      1 <0>        -0.0746
     20 C15         1.1538    3.5742    0.0103 C.ar      1 <0>        -0.0954
     21 C16         1.1780    2.1946    0.0026 C.ar      1 <0>        -0.0762
     22 Br1        -0.0812    6.1383    0.0360 Br        1 <0>        -0.0432
     23 Cl1        -7.0801    1.0558    0.0731 Cl        1 <0>        -0.0702
     24 H2         -3.7092   -1.7294    2.1598 H         1 <0>         0.1290
     25 H3         -5.6033   -0.1565    2.1867 H         1 <0>         0.1333
     26 H4         -5.6421   -0.1333   -2.0801 H         1 <0>         0.1333
     27 H5         -3.7416   -1.6984   -2.1049 H         1 <0>         0.1289
     28 H6         -2.4812   -3.4021    0.9051 H         1 <0>         0.1143
     29 H7         -2.4977   -3.3923   -0.8911 H         1 <0>         0.1143
     30 H8         -2.1626    1.6119    0.0210 H         1 <0>         0.1464
     31 H9         -2.1871    4.0716    0.0461 H         1 <0>         0.1401
     32 H10         2.0800    4.1297    0.0041 H         1 <0>         0.1398
     33 H11         2.1220    1.6702   -0.0096 H         1 <0>         0.1433
@<TRIPOS>BOND
     1    1    6 ar
     2    1    2 ar
     3    1   24 1
     4    2    3 ar
     5    2   25 1
     6    3    4 ar
     7    3   23 1
     8    4    5 ar
     9    4   26 1
    10    5    6 ar
    11    5   27 1
    12    6    7 1
    13    7    8 1
    14    7   28 1
    15    7   29 1
    16    8   15 2
    17    8    9 1
    18    9   10 2
    19    9   11 am
    20   11   12 1
    21   11   13 1
    22   13   14 2
    23   14   15 1
    24   14   16 1
    25   16   21 ar
    26   16   17 ar
    27   17   18 ar
    28   17   30 1
    29   18   19 ar
    30   18   31 1
    31   19   20 ar
    32   19   22 1
    33   20   21 ar
    34   20   32 1
    35   21   33 1
@<TRIPOS>MOLECULE
ZINC01102636
   50    54     0     0     0
SMALL
USER_CHARGES

@<TRIPOS>ATOM
      1 C1         -0.0187    1.5258    0.0104 C.3       1 <0>        -0.1527
      2 C2          0.0021   -0.0041    0.0020 C.3       1 <0>         0.0544
      3 O1          0.6932   -0.4774    1.1597 O.3       1 <0>        -0.3176
      4 C3          0.8020   -1.8242    1.3057 C.ar      1 <0>         0.1284
      5 C4          0.2597   -2.6726    0.3512 C.ar      1 <0>        -0.2057
      6 C5          0.3721   -4.0412    0.5016 C.ar      1 <0>        -0.0639
      7 C6          1.0238   -4.5657    1.6025 C.ar      1 <0>        -0.1022
      8 C7          1.5647   -3.7223    2.5553 C.ar      1 <0>        -0.0665
      9 C8          1.4604   -2.3529    2.4064 C.ar      1 <0>        -0.1531
     10 C9          1.1444   -6.0591    1.7643 C.3       1 <0>         0.0732
     11 H1          0.6600   -6.5492    0.9197 H         1 <0>         0.0903
     12 C10         2.5979   -6.4351    1.7825 C.ar      1 <0>        -0.0913
     13 C11         3.3227   -6.4992    0.5808 C.ar      1 <0>        -0.0629
     14 C12         2.7104   -6.2148   -0.6550 C.ar      1 <0>        -0.0615
     15 C13         3.4722   -6.2969   -1.7855 C.ar      1 <0>        -0.1656
     16 C14         4.8156   -6.6549   -1.6935 C.ar      1 <0>         0.1251
     17 N1          5.3822   -6.9184   -0.5411 N.ar      1 <0>        -0.4677
     18 C15         4.6941   -6.8542    0.6033 C.ar      1 <0>         0.1091
     19 C16         5.3110   -7.1348    1.8358 C.ar      1 <0>        -0.0605
     20 C17         4.5916   -7.0660    2.9860 C.ar      1 <0>        -0.1250
     21 C18         3.2341   -6.7186    2.9699 C.ar      1 <0>         0.1609
     22 N2          2.5171   -6.6619    4.1655 N.pl3     1 <0>        -0.6455
     23 C19         1.1544   -6.7419    4.1599 C.2       1 <0>         0.2348
     24 C20         0.4532   -6.4743    3.0376 C.2       1 <0>        -0.2959
     25 C21        -0.9475   -6.5783    3.0218 C.2       1 <0>         0.4037
     26 O2         -1.5513   -6.3309    1.9964 O.2       1 <0>        -0.4758
     27 C22        -1.7152   -6.9900    4.2475 C.3       1 <0>        -0.1692
     28 C23        -0.8279   -7.8894    5.1143 C.3       1 <0>        -0.1095
     29 C24         0.4562   -7.1315    5.4400 C.3       1 <0>        -0.1003
     30 H2          1.0039    1.9031    0.0027 H         1 <0>         0.0662
     31 H3         -0.5459    1.8868   -0.8726 H         1 <0>         0.0790
     32 H4         -0.5289    1.8773    0.9072 H         1 <0>         0.0663
     33 H5         -1.0205   -0.3814    0.0098 H         1 <0>         0.0619
     34 H6          0.5123   -0.3556   -0.8948 H         1 <0>         0.0615
     35 H7         -0.2501   -2.2634   -0.5084 H         1 <0>         0.1270
     36 H8         -0.0499   -4.7020   -0.2411 H         1 <0>         0.1236
     37 H9          2.0730   -4.1345    3.4145 H         1 <0>         0.1188
     38 H10         1.8869   -1.6945    3.1487 H         1 <0>         0.1273
     39 H11         1.6673   -5.9398   -0.7073 H         1 <0>         0.1389
     40 H12         3.0339   -6.0849   -2.7495 H         1 <0>         0.1390
     41 H13         5.4059   -6.7173   -2.5957 H         1 <0>         0.1604
     42 H14         6.3563   -7.4044    1.8677 H         1 <0>         0.1432
     43 H15         5.0734   -7.2827    3.9279 H         1 <0>         0.1366
     44 H16         2.9903   -6.5653    5.0067 H         1 <0>         0.4164
     45 H17        -1.9999   -6.1035    4.8143 H         1 <0>         0.0991
     46 H18        -2.6098   -7.5374    3.9507 H         1 <0>         0.0958
     47 H19        -1.3503   -8.1387    6.0379 H         1 <0>         0.0865
     48 H20        -0.5870   -8.8017    4.5686 H         1 <0>         0.0744
     49 H21         1.1130   -7.7687    6.0322 H         1 <0>         0.0911
     50 H22         0.2129   -6.2338    6.0084 H         1 <0>         0.0994
@<TRIPOS>BOND
     1    1    2 1
     2    1   30 1
     3    1   31 1
     4    1   32 1
     5    2    3 1
     6    2   33 1
     7    2   34 1
     8    3    4 1
     9    4    9 ar
    10    4    5 ar
    11    5    6 ar
    12    5   35 1
    13    6    7 ar
    14    6   36 1
    15    7    8 ar
    16    7   10 1
    17    8    9 ar
    18    8   37 1
    19    9   38 1
    20   10   11 1
    21   10   24 1
    22   10   12 1
    23   12   21 ar
    24   12   13 ar
    25   13   18 ar
    26   13   14 ar
    27   14   15 ar
    28   14   39 1
    29   15   16 ar
    30   15   40 1
    31   16   17 ar
    32   16   41 1
    33   17   18 ar
    34   18   19 ar
    35   19   20 ar
    36   19   42 1
    37   20   21 ar
    38   20   43 1
    39   21   22 1
    40   22   23 1
    41   22   44 1
    42   23   29 1
    43   23   24 2
    44   24   25 1
    45   25   26 2
    46   25   27 1
    47   27   28 1
    48   27   45 1
    49   27   46 1
    50   28   29 1
    51   28   47 1
    52   28   48 1
    53   29   49 1
    54   29   50 1
@<TRIPOS>MOLECULE
ZINC62041527
   32    34     0     0     0
SMALL
USER_CHARGES

@<TRIPOS>ATOM
      1 C1         -0.0057    1.4254    0.0157 C.3       1 <0>         0.0237
      2 O1          0.0123   -0.0035    0.0072 O.3       1 <0>        -0.3128
      3 C2          0.6149   -0.6070   -1.0520 C.ar      1 <0>         0.1293
      4 C3          1.1798    0.1791   -2.0552 C.ar      1 <0>        -0.1554
      5 C4          1.7921   -0.4298   -3.1306 C.ar      1 <0>        -0.0397
      6 C5          1.8391   -1.8059   -3.2020 C.ar      1 <0>        -0.1238
      7 C6          1.2772   -2.6353   -2.2036 C.ar      1 <0>        -0.0666
      8 C7          0.6595   -1.9770   -1.1087 C.ar      1 <0>        -0.0942
      9 C8          1.4087   -4.0194   -2.4241 C.2       1 <0>         0.0246
     10 C9          2.0436   -4.4706   -3.5406 C.2       1 <0>        -0.1940
     11 S1          2.5078   -2.9618   -4.3722 S.3       1 <0>         0.0992
     12 C10         2.2864   -5.8568   -3.9575 C.2       1 <0>         0.5912
     13 O2          1.8976   -6.7777   -3.2638 O.2       1 <0>        -0.4262
     14 N1          2.9400   -6.1095   -5.1087 N.am      1 <0>        -0.6528
     15 C11         3.2640   -7.4204   -5.4526 C.ar      1 <0>         0.3669
     16 C12         4.0299   -7.6655   -6.5871 C.ar      1 <0>        -0.1913
     17 C13         4.3446   -8.9715   -6.9175 C.ar      1 <0>        -0.0351
     18 C14         3.8803   -9.9927   -6.0978 C.ar      1 <0>        -0.1206
     19 C15         3.1239   -9.6759   -4.9856 C.ar      1 <0>         0.1525
     20 N2          2.8445   -8.4200   -4.6933 N.ar      1 <0>        -0.4620
     21 Cl1         4.2461  -11.6491   -6.4671 Cl        1 <0>        -0.0515
     22 Cl2         0.7630   -5.1485   -1.2743 Cl        1 <0>        -0.0119
     23 H1          1.0172    1.8017    0.0072 H         1 <0>         0.0591
     24 H2         -0.5333    1.7874   -0.8668 H         1 <0>         0.0591
     25 H3         -0.5148    1.7770    0.9131 H         1 <0>         0.1053
     26 H4          1.1379    1.2563   -1.9910 H         1 <0>         0.1484
     27 H5          2.2328    0.1690   -3.9139 H         1 <0>         0.1448
     28 H6          0.2169   -2.5600   -0.3146 H         1 <0>         0.1436
     29 H7          3.1850   -5.3789   -5.6979 H         1 <0>         0.4194
     30 H8          4.3741   -6.8473   -7.2023 H         1 <0>         0.1481
     31 H9          4.9374   -9.1922   -7.7928 H         1 <0>         0.1517
     32 H10         2.7606  -10.4660   -4.3452 H         1 <0>         0.1709
@<TRIPOS>BOND
     1    1    2 1
     2    1   23 1
     3    1   24 1
     4    1   25 1
     5    2    3 1
     6    3    8 ar
     7    3    4 ar
     8    4    5 ar
     9    4   26 1
    10    5    6 ar
    11    5   27 1
    12    6   11 1
    13    6    7 ar
    14    7    8 ar
    15    7    9 1
    16    8   28 1
    17    9   10 2
    18    9   22 1
    19   10   11 1
    20   10   12 1
    21   12   13 2
    22   12   14 am
    23   14   15 1
    24   14   29 1
    25   15   20 ar
    26   15   16 ar
    27   16   17 ar
    28   16   30 1
    29   17   18 ar
    30   17   31 1
    31   18   19 ar
    32   18   21 1
    33   19   20 ar
    34   19   32 1
@<TRIPOS>MOLECULE
ZINC08867511
   47    50     0     0     0
SMALL
USER_CHARGES
N-[2-[(2-chloro-6-fluoro-phenyl)methyleneaminoamino]-4-phenyl-thiazol-5-yl]-4-fluoro-benzamide
@<TRIPOS>ATOM
      1 C1         -3.1730   -6.7478   -0.0026 C.ar      1 <0>        -0.1173
      2 C2         -2.1140   -6.1922   -0.6984 C.ar      1 <0>        -0.1149
      3 C3         -1.9251   -4.8255   -0.6971 C.ar      1 <0>        -0.0862
      4 C4         -2.8047   -4.0034    0.0078 C.ar      1 <0>        -0.0096
      5 C5         -3.8672   -4.5702    0.7122 C.ar      1 <0>        -0.1293
      6 C6         -4.0490   -5.9378    0.6980 C.ar      1 <0>        -0.1133
      7 C7         -2.6078   -2.5358    0.0133 C.2       1 <0>         0.0815
      8 C8         -3.6890   -1.6870    0.0282 C.2       1 <0>         0.0130
      9 S1         -2.8664   -0.0997    0.0368 S.3       1 <0>         0.1817
     10 C9         -1.1882   -0.7130    0.0096 C.2       1 <0>         0.3349
     11 N1         -1.3802   -2.0185    0.0044 N.2       1 <0>        -0.5327
     12 N2          0.0021   -0.0041    0.0020 N.pl3     1 <0>        -0.5171
     13 N3         -0.0169    1.3968    0.0097 N.2       1 <0>        -0.2087
     14 C10         1.0988    2.0613    0.0026 C.2       1 <0>         0.1002
     15 C11         1.0788    3.5351    0.0107 C.ar      1 <0>        -0.0809
     16 C12        -0.1403    4.2220    0.0202 C.ar      1 <0>         0.1498
     17 C13        -0.1499    5.6034    0.0331 C.ar      1 <0>        -0.1538
     18 C14         1.0415    6.3069    0.0250 C.ar      1 <0>        -0.0595
     19 C15         2.2505    5.6346    0.0104 C.ar      1 <0>        -0.1226
     20 C16         2.2774    4.2541    0.0032 C.ar      1 <0>         0.0150
     21 Cl1         3.7962    3.4135   -0.0147 Cl        1 <0>        -0.0454
     22 F1         -1.3043    3.5363    0.0224 F         1 <0>        -0.1063
     23 N4         -5.0509   -1.9825    0.0400 N.am      1 <0>        -0.6098
     24 C17        -5.9568   -0.9847    0.0539 C.2       1 <0>         0.5539
     25 O1         -5.5858    0.1734    0.0562 O.2       1 <0>        -0.4971
     26 C18        -7.4000   -1.2978    0.0664 C.ar      1 <0>        -0.1474
     27 C19        -7.8289   -2.6270    0.0579 C.ar      1 <0>        -0.0558
     28 C20        -9.1770   -2.9135    0.0745 C.ar      1 <0>        -0.1579
     29 C21       -10.1069   -1.8850    0.0888 C.ar      1 <0>         0.1338
     30 C22        -9.6867   -0.5636    0.0919 C.ar      1 <0>        -0.1590
     31 C23        -8.3410   -0.2657    0.0808 C.ar      1 <0>        -0.0221
     32 F2        -11.4271   -2.1714    0.1002 F         1 <0>        -0.1295
     33 H1         -3.3166   -7.8182   -0.0066 H         1 <0>         0.1247
     34 H2         -1.4336   -6.8297   -1.2434 H         1 <0>         0.1258
     35 H3         -1.0983   -4.3930   -1.2409 H         1 <0>         0.1283
     36 H4         -4.5489   -3.9394    1.2634 H         1 <0>         0.1188
     37 H5         -4.8742   -6.3774    1.2387 H         1 <0>         0.1272
     38 H6          0.8486   -0.4776   -0.0086 H         1 <0>         0.4052
     39 H7          2.0413    1.5341   -0.0092 H         1 <0>         0.1366
     40 H8         -1.0896    6.1355    0.0449 H         1 <0>         0.1489
     41 H9          1.0276    7.3868    0.0306 H         1 <0>         0.1485
     42 H10         3.1760    6.1912    0.0049 H         1 <0>         0.1478
     43 H11        -5.3468   -2.9062    0.0381 H         1 <0>         0.4188
     44 H12        -7.1055   -3.4288    0.0423 H         1 <0>         0.1355
     45 H13        -9.5098   -3.9410    0.0721 H         1 <0>         0.1472
     46 H14       -10.4152    0.2336    0.1034 H         1 <0>         0.1482
     47 H15        -8.0148    0.7638    0.0836 H         1 <0>         0.1513
@<TRIPOS>BOND
     1    1    6 ar
     2    1    2 ar
     3    1   33 1
     4    2    3 ar
     5    2   34 1
     6    3    4 ar
     7    3   35 1
     8    4    5 ar
     9    4    7 1
    10    5    6 ar
    11    5   36 1
    12    6   37 1
    13    7   11 1
    14    7    8 2
    15    8    9 1
    16    8   23 1
    17    9   10 1
    18   10   11 2
    19   10   12 1
    20   12   13 1
    21   12   38 1
    22   13   14 2
    23   14   15 1
    24   14   39 1
    25   15   20 ar
    26   15   16 ar
    27   16   17 ar
    28   16   22 1
    29   17   18 ar
    30   17   40 1
    31   18   19 ar
    32   18   41 1
    33   19   20 ar
    34   19   42 1
    35   20   21 1
    36   23   24 am
    37   23   43 1
    38   24   25 2
    39   24   26 1
    40   26   31 ar
    41   26   27 ar
    42   27   28 ar
    43   27   44 1
    44   28   29 ar
    45   28   45 1
    46   29   30 ar
    47   29   32 1
    48   30   31 ar
    49   30   46 1
    50   31   47 1
@<TRIPOS>MOLECULE
ZINC14545890
   61    65     0     0     0
SMALL
USER_CHARGES
(3aR,4R,9bR)-N-(3,4-dimethylphenyl)-4-(2-methoxyphenyl)-3a,4,5,9b-tetrahydro-3H-cyclopenta[c]quinoline-8-sulfonamide
@<TRIPOS>ATOM
      1 C1          1.4906    1.5735    2.4241 C.3       1 <0>        -0.1170
      2 C2          0.0016    1.8054    2.4051 C.ar      1 <0>        -0.0943
      3 C3         -0.6417    2.2519    3.5451 C.ar      1 <0>        -0.0937
      4 C4         -2.0058    2.4655    3.5311 C.ar      1 <0>        -0.1541
      5 C5         -2.7322    2.2313    2.3702 C.ar      1 <0>         0.1438
      6 C6         -2.0820    1.7888    1.2254 C.ar      1 <0>        -0.1264
      7 C7         -0.7181    1.5718    1.2479 C.ar      1 <0>        -0.0698
      8 C8         -0.0127    1.0858    0.0080 C.3       1 <0>        -0.1177
      9 N1         -4.1122    2.4463    2.3525 N.pl3     1 <0>        -1.0580
     10 S1         -4.7446    3.8214    3.0245 S.o2      1 <0>         2.6934
     11 O1         -6.1504    3.7606    2.8266 O.2       1 <0>        -0.9566
     12 O2         -4.1615    3.9485    4.3141 O.2       1 <0>        -0.9526
     13 C9         -4.1604    5.1833    2.0712 C.ar      1 <0>        -0.7282
     14 C10        -4.8874    5.6276    0.9817 C.ar      1 <0>         0.0282
     15 C11        -4.4368    6.6989    0.2383 C.ar      1 <0>        -0.2156
     16 C12        -3.2511    7.3394    0.5775 C.ar      1 <0>         0.2781
     17 C13        -2.5130    6.8747    1.6718 C.ar      1 <0>        -0.1555
     18 C14        -2.9779    5.8117    2.4155 C.ar      1 <0>         0.0364
     19 C15        -1.2345    7.5545    1.9702 C.3       1 <0>        -0.0267
     20 H1         -0.4804    7.1726    1.2819 H         1 <0>         0.0837
     21 C16        -0.6470    7.5641    3.3342 C.2       1 <0>        -0.1516
     22 C17         0.0344    8.6924    3.4941 C.2       1 <0>        -0.1638
     23 C18        -0.0771    9.5540    2.2347 C.3       1 <0>        -0.0818
     24 C19        -1.4082    9.0682    1.6449 C.3       1 <0>        -0.0989
     25 H2         -2.2603    9.5018    2.1684 H         1 <0>         0.0925
     26 C20        -1.5640    9.1431    0.1366 C.3       1 <0>         0.2161
     27 H3         -0.7304    8.6398   -0.3532 H         1 <0>         0.0896
     28 N2         -2.8322    8.4466   -0.1699 N.pl3     1 <0>        -0.7351
     29 C21        -1.6363   10.5811   -0.3082 C.ar      1 <0>        -0.1281
     30 C22        -2.8643   11.1877   -0.4900 C.ar      1 <0>        -0.0756
     31 C23        -2.9313   12.5069   -0.8980 C.ar      1 <0>        -0.1525
     32 C24        -1.7701   13.2228   -1.1247 C.ar      1 <0>        -0.0757
     33 C25        -0.5400   12.6210   -0.9443 C.ar      1 <0>        -0.2046
     34 C26        -0.4700   11.2987   -0.5298 C.ar      1 <0>         0.1432
     35 O3          0.7390   10.7060   -0.3462 O.3       1 <0>        -0.3115
     36 C27         1.8976   11.5053   -0.5932 C.3       1 <0>         0.0248
     37 H4          2.0048    2.4902    2.1358 H         1 <0>         0.0705
     38 H5          1.8003    1.2835    3.4282 H         1 <0>         0.0672
     39 H6          1.7435    0.7788    1.7222 H         1 <0>         0.0684
     40 H7         -0.0766    2.4334    4.4473 H         1 <0>         0.1291
     41 H8         -2.5077    2.8138    4.4218 H         1 <0>         0.1573
     42 H9         -2.6429    1.6103    0.3199 H         1 <0>         0.1266
     43 H10         0.0021   -0.0041    0.0020 H         1 <0>         0.0723
     44 H11         1.0099    1.4631    0.0003 H         1 <0>         0.0705
     45 H12        -0.5399    1.4469   -0.8751 H         1 <0>         0.0662
     46 H13        -4.7001    1.7901    1.9467 H         1 <0>         0.4253
     47 H14        -5.8097    5.1346    0.7122 H         1 <0>         0.1381
     48 H15        -5.0087    7.0417   -0.6114 H         1 <0>         0.1301
     49 H16        -2.4141    5.4655    3.2691 H         1 <0>         0.1368
     50 H17        -0.7563    6.7839    4.0729 H         1 <0>         0.1329
     51 H18         0.5864    8.9621    4.3823 H         1 <0>         0.1301
     52 H19        -0.1258   10.6128    2.4889 H         1 <0>         0.0692
     53 H20         0.7485    9.3555    1.5513 H         1 <0>         0.0907
     54 H21        -3.3839    8.7628   -0.9024 H         1 <0>         0.4034
     55 H22        -3.7726   10.6307   -0.3137 H         1 <0>         0.1290
     56 H23        -3.8922   12.9792   -1.0396 H         1 <0>         0.1264
     57 H24        -1.8251   14.2532   -1.4434 H         1 <0>         0.1271
     58 H25         0.3666   13.1805   -1.1219 H         1 <0>         0.1315
     59 H26         2.7938   10.9126   -0.4097 H         1 <0>         0.1026
     60 H27         1.8915   11.8435   -1.6293 H         1 <0>         0.0565
     61 H28         1.8911   12.3694    0.0711 H         1 <0>         0.0576
@<TRIPOS>BOND
     1    1    2 1
     2    1   37 1
     3    1   38 1
     4    1   39 1
     5    2    7 ar
     6    2    3 ar
     7    3    4 ar
     8    3   40 1
     9    4    5 ar
    10    4   41 1
    11    5    6 ar
    12    5    9 1
    13    6    7 ar
    14    6   42 1
    15    7    8 1
    16    8   43 1
    17    8   44 1
    18    8   45 1
    19    9   10 1
    20    9   46 1
    21   10   11 2
    22   10   12 2
    23   10   13 1
    24   13   18 ar
    25   13   14 ar
    26   14   15 ar
    27   14   47 1
    28   15   16 ar
    29   15   48 1
    30   16   28 1
    31   16   17 ar
    32   17   18 ar
    33   17   19 1
    34   18   49 1
    35   19   20 1
    36   19   24 1
    37   19   21 1
    38   21   22 2
    39   21   50 1
    40   22   23 1
    41   22   51 1
    42   23   24 1
    43   23   52 1
    44   23   53 1
    45   24   25 1
    46   24   26 1
    47   26   27 1
    48   26   28 1
    49   26   29 1
    50   28   54 1
    51   29   34 ar
    52   29   30 ar
    53   30   31 ar
    54   30   55 1
    55   31   32 ar
    56   31   56 1
    57   32   33 ar
    58   32   57 1
    59   33   34 ar
    60   33   58 1
    61   34   35 1
    62   35   36 1
    63   36   59 1
    64   36   60 1
    65   36   61 1
@<TRIPOS>MOLECULE
ZINC21220064
   68    72     0     0     0
SMALL
USER_CHARGES
(6R,9S)-6-(4-dimethylaminophenyl)-9-(4-propoxyphenyl)-5,6,8,9,10,11-hexahydrobenzo[c][1,5]benzodiazepin-7-one
@<TRIPOS>ATOM
      1 C1         10.3848   -2.5861    2.4245 C.3       1 <0>        -0.1524
      2 C2          9.8226   -2.3519    1.0209 C.3       1 <0>        -0.1252
      3 C3          8.4078   -1.7793    1.1273 C.3       1 <0>         0.0567
      4 O1          7.8827   -1.5605   -0.1836 O.3       1 <0>        -0.3161
      5 C4          6.6256   -1.0510   -0.2676 C.ar      1 <0>         0.1309
      6 C5          6.0536   -0.8135   -1.5090 C.ar      1 <0>        -0.1498
      7 C6          4.7755   -0.2959   -1.5917 C.ar      1 <0>        -0.0712
      8 C7          4.0664   -0.0145   -0.4385 C.ar      1 <0>        -0.1187
      9 C8          4.6364   -0.2449    0.7999 C.ar      1 <0>        -0.0720
     10 C9          5.9120   -0.7677    0.8880 C.ar      1 <0>        -0.2063
     11 C10         2.6723    0.5501   -0.5317 C.3       1 <0>        -0.0296
     12 H1          2.4317    0.6664   -1.5987 H         1 <0>         0.0872
     13 C11         1.6839   -0.3959    0.1480 C.3       1 <0>        -0.1024
     14 C12         0.2793    0.1785    0.0705 C.2       1 <0>         0.2648
     15 C13         0.0848    1.5082    0.0857 C.2       1 <0>        -0.2984
     16 C14        -1.2509    2.2088    0.0147 C.3       1 <0>         0.2924
     17 H2         -1.3112    2.9023    0.8664 H         1 <0>         0.0868
     18 N1         -2.3954    1.3400    0.1887 N.pl3     1 <0>        -0.7828
     19 C15        -2.6850    0.3386   -0.7369 C.ar      1 <0>         0.1763
     20 C16        -3.8096    0.4030   -1.5436 C.ar      1 <0>        -0.1245
     21 C17        -3.9978   -0.5548   -2.5251 C.ar      1 <0>        -0.1090
     22 C18        -3.0732   -1.5682   -2.7008 C.ar      1 <0>        -0.1257
     23 C19        -1.9598   -1.6476   -1.8816 C.ar      1 <0>        -0.1171
     24 C20        -1.7797   -0.7011   -0.8881 C.ar      1 <0>         0.1147
     25 N2         -0.7104   -0.7475   -0.0013 N.pl3     1 <0>        -0.6991
     26 C21        -1.3645    2.8850   -1.3273 C.ar      1 <0>        -0.1360
     27 C22        -1.3675    2.1269   -2.4838 C.ar      1 <0>        -0.0556
     28 C23        -1.4772    2.7430   -3.7149 C.ar      1 <0>        -0.1974
     29 C24        -1.5730    4.1267   -3.7913 C.ar      1 <0>         0.2122
     30 C25        -1.5639    4.8856   -2.6279 C.ar      1 <0>        -0.1982
     31 C26        -1.4597    4.2627   -1.3997 C.ar      1 <0>        -0.0435
     32 N3         -1.6788    4.7534   -5.0350 N.pl3     1 <0>        -0.6399
     33 C27        -1.7803    6.2127   -5.1136 C.3       1 <0>         0.0944
     34 C28        -1.6882    3.9514   -6.2610 C.3       1 <0>         0.0952
     35 C29         1.1896    2.3887    0.1637 C.2       1 <0>         0.4005
     36 O2          0.9836    3.5859    0.2035 O.2       1 <0>        -0.4705
     37 C30         2.6056    1.8969    0.1986 C.3       1 <0>        -0.1598
     38 H3         11.4020   -2.9978    2.3481 H         1 <0>         0.0664
     39 H4          9.7411   -3.2969    2.9634 H         1 <0>         0.0583
     40 H5         10.4155   -1.6320    2.9711 H         1 <0>         0.0585
     41 H6         10.4663   -1.6411    0.4820 H         1 <0>         0.0746
     42 H7          9.7919   -3.3060    0.4743 H         1 <0>         0.0744
     43 H8          7.7641   -2.4901    1.6662 H         1 <0>         0.0629
     44 H9          8.4385   -0.8253    1.6740 H         1 <0>         0.0632
     45 H10         6.6070   -1.0335   -2.4100 H         1 <0>         0.1309
     46 H11         4.3296   -0.1112   -2.5579 H         1 <0>         0.1292
     47 H12         4.0823   -0.0198    1.6992 H         1 <0>         0.1245
     48 H13         6.3551   -0.9517    1.8555 H         1 <0>         0.1275
     49 H14         1.7043   -1.3726   -0.3576 H         1 <0>         0.0890
     50 H15         1.9653   -0.5236    1.2037 H         1 <0>         0.0902
     51 H16        -3.0526    1.4644    1.0619 H         1 <0>         0.4132
     52 H17        -4.5332    1.1931   -1.4075 H         1 <0>         0.1224
     53 H18        -4.8719   -0.5101   -3.1578 H         1 <0>         0.1209
     54 H19        -3.2206   -2.3011   -3.4802 H         1 <0>         0.1230
     55 H20        -1.2386   -2.4400   -2.0171 H         1 <0>         0.1236
     56 H21        -0.7024   -1.6147    0.6754 H         1 <0>         0.4242
     57 H22        -1.2882    1.0514   -2.4239 H         1 <0>         0.1136
     58 H23        -1.4839    2.1500   -4.6175 H         1 <0>         0.1139
     59 H24        -1.6379    5.9616   -2.6838 H         1 <0>         0.1166
     60 H25        -1.4530    4.8522   -0.4948 H         1 <0>         0.1179
     61 H26        -1.8549    6.5188   -6.1675 H         1 <0>         0.0721
     62 H27        -0.8861    6.6673   -4.6622 H         1 <0>         0.0532
     63 H28        -2.6761    6.5477   -4.5701 H         1 <0>         0.0529
     64 H29        -1.7774    4.6158   -7.1331 H         1 <0>         0.0722
     65 H30        -2.5421    3.2583   -6.2392 H         1 <0>         0.0524
     66 H31        -0.7521    3.3779   -6.3312 H         1 <0>         0.0519
     67 H32         2.9313    1.7653    1.2410 H         1 <0>         0.0999
     68 H33         3.2660    2.6193   -0.3034 H         1 <0>         0.0960
@<TRIPOS>BOND
     1    1    2 1
     2    1   38 1
     3    1   39 1
     4    1   40 1
     5    2    3 1
     6    2   41 1
     7    2   42 1
     8    3    4 1
     9    3   43 1
    10    3   44 1
    11    4    5 1
    12    5   10 ar
    13    5    6 ar
    14    6    7 ar
    15    6   45 1
    16    7    8 ar
    17    7   46 1
    18    8    9 ar
    19    8   11 1
    20    9   10 ar
    21    9   47 1
    22   10   48 1
    23   11   12 1
    24   11   37 1
    25   11   13 1
    26   13   14 1
    27   13   49 1
    28   13   50 1
    29   14   25 1
    30   14   15 2
    31   15   16 1
    32   15   35 1
    33   16   17 1
    34   16   18 1
    35   16   26 1
    36   18   19 1
    37   18   51 1
    38   19   24 ar
    39   19   20 ar
    40   20   21 ar
    41   20   52 1
    42   21   22 ar
    43   21   53 1
    44   22   23 ar
    45   22   54 1
    46   23   24 ar
    47   23   55 1
    48   24   25 1
    49   25   56 1
    50   26   31 ar
    51   26   27 ar
    52   27   28 ar
    53   27   57 1
    54   28   29 ar
    55   28   58 1
    56   29   30 ar
    57   29   32 1
    58   30   31 ar
    59   30   59 1
    60   31   60 1
    61   32   33 1
    62   32   34 1
    63   33   61 1
    64   33   62 1
    65   33   63 1
    66   34   64 1
    67   34   65 1
    68   34   66 1
    69   35   36 2
    70   35   37 1
    71   37   67 1
    72   37   68 1
@<TRIPOS>MOLECULE
ZINC27794281
   59    63     0     0     0
SMALL
USER_CHARGES
N-[(2R)-2-(1H-indol-3-yl)-2-(4-methoxyphenyl)ethyl]-3,6-dimethyl-benzofuran-2-carboxamide
@<TRIPOS>ATOM
      1 C1          2.4816    1.0399   -0.0155 C.3       1 <0>        -0.1190
      2 C2          1.1704    1.7825    0.0005 C.ar      1 <0>        -0.0457
      3 C3          1.1678    3.1708    0.0079 C.ar      1 <0>        -0.1385
      4 C4         -0.0112    3.8608    0.0229 C.ar      1 <0>        -0.0531
      5 C5         -1.2216    3.1633    0.0302 C.ar      1 <0>        -0.1502
      6 C6         -2.6284    3.5629    0.0456 C.2       1 <0>        -0.0724
      7 C7         -3.3468    2.4104    0.0457 C.2       1 <0>        -0.0415
      8 O1         -2.5100    1.3518    0.0319 O.3       1 <0>        -0.1843
      9 C8         -1.2250    1.7560    0.0174 C.ar      1 <0>         0.0799
     10 C9         -0.0126    1.0758    0.0080 C.ar      1 <0>        -0.1170
     11 C10        -4.8143    2.3285    0.0582 C.2       1 <0>         0.6035
     12 O2         -5.4802    3.3465    0.0695 O.2       1 <0>        -0.5195
     13 N1         -5.4221    1.1256    0.0571 N.am      1 <0>        -0.7214
     14 C11        -6.8847    1.0439    0.0695 C.3       1 <0>         0.1344
     15 C12        -7.3136   -0.4248    0.0654 C.3       1 <0>         0.0233
     16 H1         -6.8600   -0.9524   -0.7866 H         1 <0>         0.0930
     17 C13        -8.8141   -0.5096   -0.0457 C.ar      1 <0>        -0.1065
     18 C14        -9.6117    0.0645    0.9269 C.ar      1 <0>        -0.0725
     19 C15       -10.9875   -0.0070    0.8244 C.ar      1 <0>        -0.2052
     20 C16       -11.5686   -0.6657   -0.2494 C.ar      1 <0>         0.1266
     21 C17       -10.7660   -1.2458   -1.2210 C.ar      1 <0>        -0.1484
     22 C18        -9.3908   -1.1662   -1.1171 C.ar      1 <0>        -0.0693
     23 O3        -12.9217   -0.7430   -0.3491 O.3       1 <0>        -0.3177
     24 C19       -13.6851   -0.1229    0.6876 C.3       1 <0>         0.0236
     25 C20        -6.8667   -1.0821    1.3457 C.2       1 <0>        -0.1701
     26 C21        -7.2179   -0.7254    2.5913 C.2       1 <0>         0.0563
     27 N2         -6.6194   -1.5548    3.5004 N.pl3     1 <0>        -0.6048
     28 H2         -6.8009   -1.4141    4.5762 H         1 <0>         0.4422
     29 C22        -5.8410   -2.4829    2.8457 C.ar      1 <0>         0.1097
     30 C23        -5.9617   -2.2276    1.4673 C.ar      1 <0>        -0.1002
     31 C24        -5.2734   -3.0222    0.5489 C.ar      1 <0>        -0.0741
     32 C25        -4.4846   -4.0455    0.9942 C.ar      1 <0>        -0.1446
     33 C26        -4.3618   -4.3011    2.3529 C.ar      1 <0>        -0.0991
     34 C27        -5.0323   -3.5293    3.2766 C.ar      1 <0>        -0.1306
     35 C28        -3.1709    4.9688    0.0586 C.3       1 <0>        -0.1116
     36 H3          3.3117    1.7616   -0.0196 H         1 <0>         0.0718
     37 H4          2.5367    0.4125   -0.9174 H         1 <0>         0.0759
     38 H5          2.5535    0.4035    0.8788 H         1 <0>         0.0756
     39 H6          2.1042    3.7089    0.0022 H         1 <0>         0.1324
     40 H7         -0.0076    4.9408    0.0293 H         1 <0>         0.1307
     41 H8          0.0021   -0.0041    0.0020 H         1 <0>         0.1349
     42 H9         -4.8199    0.2051    0.0469 H         1 <0>         0.4311
     43 H10        -7.2718    1.5364    0.9737 H         1 <0>         0.0707
     44 H11        -7.2876    1.5460   -0.8224 H         1 <0>         0.0765
     45 H12        -9.1588    0.5727    1.7654 H         1 <0>         0.1217
     46 H13       -11.6102    0.4457    1.5819 H         1 <0>         0.1276
     47 H14       -11.2160   -1.7588   -2.0581 H         1 <0>         0.1314
     48 H15        -8.7656   -1.6176   -1.8733 H         1 <0>         0.1302
     49 H16       -14.7576   -0.2593    0.4848 H         1 <0>         0.1023
     50 H17       -13.4522    0.9516    0.7218 H         1 <0>         0.0571
     51 H18       -13.4331   -0.5837    1.6541 H         1 <0>         0.0559
     52 H19        -7.8774    0.0931    2.8390 H         1 <0>         0.1641
     53 H20        -5.3642   -2.8292   -0.5098 H         1 <0>         0.1200
     54 H21        -3.9523   -4.6599    0.2833 H         1 <0>         0.1215
     55 H22        -3.7341   -5.1129    2.6894 H         1 <0>         0.1236
     56 H23        -4.9305   -3.7363    4.3317 H         1 <0>         0.1178
     57 H24        -4.2704    4.9374    0.0687 H         1 <0>         0.1036
     58 H25        -2.8275    5.5026   -0.8398 H         1 <0>         0.0745
     59 H26        -2.8107    5.4925    0.9564 H         1 <0>         0.0738
@<TRIPOS>BOND
     1    1    2 1
     2    1   36 1
     3    1   37 1
     4    1   38 1
     5    2   10 ar
     6    2    3 ar
     7    3    4 ar
     8    3   39 1
     9    4    5 ar
    10    4   40 1
    11    5    9 ar
    12    5    6 1
    13    6    7 2
    14    6   35 1
    15    7    8 1
    16    7   11 1
    17    8    9 1
    18    9   10 ar
    19   10   41 1
    20   11   12 2
    21   11   13 am
    22   13   14 1
    23   13   42 1
    24   14   15 1
    25   14   43 1
    26   14   44 1
    27   15   16 1
    28   15   17 1
    29   15   25 1
    30   17   22 ar
    31   17   18 ar
    32   18   19 ar
    33   18   45 1
    34   19   20 ar
    35   19   46 1
    36   20   21 ar
    37   20   23 1
    38   21   22 ar
    39   21   47 1
    40   22   48 1
    41   23   24 1
    42   24   49 1
    43   24   50 1
    44   24   51 1
    45   25   30 1
    46   25   26 2
    47   26   27 1
    48   26   52 1
    49   27   28 1
    50   27   29 1
    51   29   34 ar
    52   29   30 ar
    53   30   31 ar
    54   31   32 ar
    55   31   53 1
    56   32   33 ar
    57   32   54 1
    58   33   34 ar
    59   33   55 1
    60   34   56 1
    61   35   57 1
    62   35   58 1
    63   35   59 1
@<TRIPOS>MOLECULE
ZINC43548657
   67    70     0     0     0
SMALL
USER_CHARGES

@<TRIPOS>ATOM
      1 C1          1.9888    2.7710    1.3167 C.3       1 <0>        -0.1349
      2 C2          1.3545    1.3789    1.2989 C.3       1 <0>        -0.0039
      3 H1          1.2969    1.0183    0.2718 H         1 <0>         0.0908
      4 C3         -0.0440    1.4509    1.8905 C.2       1 <0>         0.1118
      5 C4         -0.4937    0.4768    2.7211 C.2       1 <0>        -0.2423
      6 S1         -2.1312    1.0258    3.1122 S.3       1 <0>         0.1110
      7 C5         -2.1130    2.4405    2.1964 C.2       1 <0>         0.2949
      8 N1         -0.9135    2.4316    1.6568 N.2       1 <0>        -0.5666
      9 N2         -3.1182    3.3840    2.0476 N.pl3     1 <0>        -0.6199
     10 C6         -4.3109    3.2547    2.7669 C.ar      1 <0>         0.1554
     11 C7         -4.2930    2.7389    4.0564 C.ar      1 <0>        -0.1318
     12 C8         -5.4717    2.6126    4.7649 C.ar      1 <0>        -0.1144
     13 C9         -6.6708    2.9997    4.1906 C.ar      1 <0>         0.0801
     14 C10        -6.6911    3.5138    2.9050 C.ar      1 <0>        -0.1193
     15 C11        -5.5141    3.6473    2.1949 C.ar      1 <0>        -0.1160
     16 F1         -7.8227    2.8752    4.8856 F         1 <0>        -0.1364
     17 C12         0.2383   -0.7395    3.1730 C.3       1 <0>        -0.0156
     18 C13         1.4817   -0.9219    2.2995 C.3       1 <0>        -0.0437
     19 C14         2.2089    0.4164    2.1320 C.3       1 <0>        -0.0576
     20 H2          2.4203    0.8522    3.1085 H         1 <0>         0.0828
     21 C15         3.5112    0.1494    1.3594 C.3       1 <0>         0.1056
     22 H3          4.1117   -0.5841    1.8974 H         1 <0>         0.0759
     23 C16         3.1571   -0.3944   -0.0267 C.3       1 <0>        -0.0998
     24 H4          2.5494    0.3379   -0.5583 H         1 <0>         0.0869
     25 C17         2.3745   -1.7009    0.1083 C.3       1 <0>        -0.1417
     26 C18         1.0994   -1.4602    0.9222 C.3       1 <0>        -0.1094
     27 C19         4.4430   -0.6545   -0.8139 C.3       1 <0>        -0.1115
     28 H5          4.9823    0.2831   -0.9489 H         1 <0>         0.0923
     29 C20         4.0932   -1.2431   -2.1822 C.3       1 <0>        -0.1441
     30 C21         5.3086   -1.6271   -0.0551 C.2       1 <0>         0.5180
     31 O1          4.8036   -2.4109    0.7205 O.2       1 <0>        -0.5235
     32 N3          6.6438   -1.6259   -0.2383 N.am      1 <0>        -0.6134
     33 C22         7.2625   -0.6250   -1.1110 C.3       1 <0>         0.0712
     34 C23         7.4765   -2.6255    0.4353 C.3       1 <0>         0.1390
     35 C24         7.6105   -3.8423   -0.4436 C.2       1 <0>        -0.1709
     36 C25         8.7988   -4.2893   -0.7667 C.2       1 <0>        -0.1782
     37 O2          4.2476    1.3668    1.2261 O.3       1 <0>        -0.5545
     38 C26         2.4340   -1.9081    2.9789 C.3       1 <0>        -0.1599
     39 H6          2.8900    2.7675    0.7034 H         1 <0>         0.0783
     40 H7          1.2811    3.4980    0.9183 H         1 <0>         0.0554
     41 H8          2.2475    3.0394    2.3410 H         1 <0>         0.0467
     42 H9         -2.9943    4.1337    1.4447 H         1 <0>         0.4242
     43 H10        -3.3580    2.4365    4.5045 H         1 <0>         0.1402
     44 H11        -5.4583    2.2112    5.7675 H         1 <0>         0.1440
     45 H12        -7.6276    3.8145    2.4588 H         1 <0>         0.1442
     46 H13        -5.5298    4.0528    1.1940 H         1 <0>         0.1406
     47 H14         0.5379   -0.6196    4.2141 H         1 <0>         0.0808
     48 H15        -0.4078   -1.6119    3.0752 H         1 <0>         0.0808
     49 H16         2.1087   -2.0682   -0.8829 H         1 <0>         0.0602
     50 H17         2.9922   -2.4426    0.6147 H         1 <0>         0.1168
     51 H18         0.5563   -2.3984    1.0350 H         1 <0>         0.0651
     52 H19         0.4715   -0.7328    0.4076 H         1 <0>         0.0611
     53 H20         3.5266   -2.1644   -2.0473 H         1 <0>         0.0692
     54 H21         3.4934   -0.5266   -2.7434 H         1 <0>         0.0707
     55 H22         5.0104   -1.4576   -2.7307 H         1 <0>         0.0593
     56 H23         7.4395    0.2902   -0.5459 H         1 <0>         0.0607
     57 H24         8.2107   -1.0082   -1.4882 H         1 <0>         0.0757
     58 H25         6.5978   -0.4122   -1.9482 H         1 <0>         0.0743
     59 H26         8.4639   -2.2058    0.6278 H         1 <0>         0.0816
     60 H27         7.0117   -2.9088    1.3796 H         1 <0>         0.0947
     61 H28         6.7270   -4.3458   -0.8072 H         1 <0>         0.1092
     62 H29         9.6824   -3.7857   -0.4031 H         1 <0>         0.0981
     63 H30         8.8948   -5.1613   -1.3965 H         1 <0>         0.1001
     64 H31         5.1230    1.2557    0.8306 H         1 <0>         0.3644
     65 H32         1.9330   -2.8676    3.1067 H         1 <0>         0.0564
     66 H33         3.3214   -2.0412    2.3601 H         1 <0>         0.0890
     67 H34         2.7261   -1.5180    3.9539 H         1 <0>         0.0519
@<TRIPOS>BOND
     1    1    2 1
     2    1   39 1
     3    1   40 1
     4    1   41 1
     5    2    3 1
     6    2   19 1
     7    2    4 1
     8    4    8 1
     9    4    5 2
    10    5    6 1
    11    5   17 1
    12    6    7 1
    13    7    8 2
    14    7    9 1
    15    9   10 1
    16    9   42 1
    17   10   15 ar
    18   10   11 ar
    19   11   12 ar
    20   11   43 1
    21   12   13 ar
    22   12   44 1
    23   13   14 ar
    24   13   16 1
    25   14   15 ar
    26   14   45 1
    27   15   46 1
    28   17   18 1
    29   17   47 1
    30   17   48 1
    31   18   26 1
    32   18   19 1
    33   18   38 1
    34   19   20 1
    35   19   21 1
    36   21   22 1
    37   21   23 1
    38   21   37 1
    39   23   24 1
    40   23   25 1
    41   23   27 1
    42   25   26 1
    43   25   49 1
    44   25   50 1
    45   26   51 1
    46   26   52 1
    47   27   28 1
    48   27   29 1
    49   27   30 1
    50   29   53 1
    51   29   54 1
    52   29   55 1
    53   30   31 2
    54   30   32 am
    55   32   33 1
    56   32   34 1
    57   33   56 1
    58   33   57 1
    59   33   58 1
    60   34   35 1
    61   34   59 1
    62   34   60 1
    63   35   36 2
    64   35   61 1
    65   36   62 1
    66   36   63 1
    67   37   64 1
    68   38   65 1
    69   38   66 1
    70   38   67 1
@<TRIPOS>MOLECULE
ZINC12559557
   51    54     0     0     0
SMALL
USER_CHARGES
4-chloro-N-[(1R)-2-(1-naphthylamino)-1-phenyl-ethyl]benzenesulfonamide
@<TRIPOS>ATOM
      1 C1         -7.2266    9.5599    0.4741 C.ar      1 <0>        -0.1092
      2 C2         -6.6370    9.4307   -0.7695 C.ar      1 <0>        -0.1149
      3 C3         -5.4351    8.7602   -0.8983 C.ar      1 <0>        -0.1042
      4 C4         -4.8223    8.2196    0.2166 C.ar      1 <0>        -0.1136
      5 C5         -5.4143    8.3445    1.4595 C.ar      1 <0>        -0.0963
      6 C6         -6.6140    9.0188    1.5890 C.ar      1 <0>        -0.1176
      7 C7         -3.5119    7.4886    0.0762 C.3       1 <0>         0.1833
      8 H1         -3.0320    7.7794   -0.8582 H         1 <0>         0.1092
      9 C8         -3.7675    5.9801    0.0703 C.3       1 <0>         0.1281
     10 N1         -2.4873    5.2680    0.0541 N.pl3     1 <0>        -0.7402
     11 C9         -2.4651    3.8750    0.0462 C.ar      1 <0>         0.2307
     12 C10        -3.6443    3.1604    0.0541 C.ar      1 <0>        -0.2190
     13 C11        -3.6330    1.7690    0.0472 C.ar      1 <0>        -0.0608
     14 C12        -2.4612    1.0755    0.0322 C.ar      1 <0>        -0.1703
     15 C13        -1.2374    1.7657    0.0175 C.ar      1 <0>        -0.0098
     16 C14        -1.2354    3.1824    0.0307 C.ar      1 <0>        -0.0966
     17 C15        -0.0120    3.8702    0.0226 C.ar      1 <0>        -0.0973
     18 C16         1.1553    3.1692    0.0081 C.ar      1 <0>        -0.1290
     19 C17         1.1546    1.7758    0.0006 C.ar      1 <0>        -0.1053
     20 C18        -0.0126    1.0758    0.0080 C.ar      1 <0>        -0.1168
     21 N2         -2.6384    7.8315    1.2012 N.pl3     1 <0>        -1.1097
     22 S1         -1.5245    9.0467    1.0441 S.o2      1 <0>         2.6911
     23 O1         -0.8610    9.1539    2.2961 O.2       1 <0>        -0.9496
     24 O2         -0.8265    8.8034   -0.1695 O.2       1 <0>        -0.9499
     25 C19        -2.4192   10.5477    0.8182 C.ar      1 <0>        -0.6732
     26 C20        -2.7486   10.9707   -0.4560 C.ar      1 <0>        -0.0028
     27 C21        -3.4554   12.1452   -0.6335 C.ar      1 <0>        -0.1280
     28 C22        -3.8234   12.9033    0.4638 C.ar      1 <0>         0.0221
     29 C23        -3.4886   12.4823    1.7385 C.ar      1 <0>        -0.1301
     30 C24        -2.7867   11.3048    1.9150 C.ar      1 <0>        -0.0016
     31 Cl1        -4.7055   14.3818    0.2413 Cl        1 <0>        -0.0525
     32 H2         -8.1657   10.0837    0.5747 H         1 <0>         0.1222
     33 H3         -7.1156    9.8534   -1.6406 H         1 <0>         0.1241
     34 H4         -4.9746    8.6590   -1.8700 H         1 <0>         0.1248
     35 H5         -4.9377    7.9184    2.3299 H         1 <0>         0.1223
     36 H6         -7.0745    9.1200    2.5606 H         1 <0>         0.1231
     37 H7         -4.3433    5.7126   -0.8157 H         1 <0>         0.0816
     38 H8         -4.3262    5.7028    0.9642 H         1 <0>         0.0749
     39 H9         -1.6551    5.7663    0.0489 H         1 <0>         0.4018
     40 H10        -4.5874    3.6865    0.0660 H         1 <0>         0.1201
     41 H11        -4.5690    1.2302    0.0535 H         1 <0>         0.1200
     42 H12        -2.4726   -0.0045    0.0267 H         1 <0>         0.1220
     43 H13         0.0036    4.9501    0.0276 H         1 <0>         0.1181
     44 H14         2.0953    3.7010    0.0019 H         1 <0>         0.1225
     45 H15         2.0942    1.2433   -0.0117 H         1 <0>         0.1225
     46 H16         0.0021   -0.0041    0.0020 H         1 <0>         0.1271
     47 H17        -2.7126    7.3468    2.0381 H         1 <0>         0.4240
     48 H18        -2.4574   10.3811   -1.3127 H         1 <0>         0.1468
     49 H19        -3.7164   12.4733   -1.6288 H         1 <0>         0.1437
     50 H20        -3.7759   13.0735    2.5954 H         1 <0>         0.1438
     51 H21        -2.5256   10.9759    2.9100 H         1 <0>         0.1483
@<TRIPOS>BOND
     1    1    6 ar
     2    1    2 ar
     3    1   32 1
     4    2    3 ar
     5    2   33 1
     6    3    4 ar
     7    3   34 1
     8    4    5 ar
     9    4    7 1
    10    5    6 ar
    11    5   35 1
    12    6   36 1
    13    7    8 1
    14    7    9 1
    15    7   21 1
    16    9   10 1
    17    9   37 1
    18    9   38 1
    19   10   11 1
    20   10   39 1
    21   11   16 ar
    22   11   12 ar
    23   12   13 ar
    24   12   40 1
    25   13   14 ar
    26   13   41 1
    27   14   15 ar
    28   14   42 1
    29   15   20 ar
    30   15   16 ar
    31   16   17 ar
    32   17   18 ar
    33   17   43 1
    34   18   19 ar
    35   18   44 1
    36   19   20 ar
    37   19   45 1
    38   20   46 1
    39   21   22 1
    40   21   47 1
    41   22   23 2
    42   22   24 2
    43   22   25 1
    44   25   30 ar
    45   25   26 ar
    46   26   27 ar
    47   26   48 1
    48   27   28 ar
    49   27   49 1
    50   28   29 ar
    51   28   31 1
    52   29   30 ar
    53   29   50 1
    54   30   51 1
@<TRIPOS>MOLECULE
ZINC20881566
   67    71     0     0     0
SMALL
USER_CHARGES
(6R,9S)-9-(4-isobutoxyphenyl)-6-(4-methylsulfanylphenyl)-5,6,8,9,10,11-hexahydrobenzo[c][1,5]benzodiazepin-7-one
@<TRIPOS>ATOM
      1 C1         10.4312   -2.4709    2.4189 C.3       1 <0>        -0.1490
      2 C2          9.8221   -2.3533    1.0203 C.3       1 <0>        -0.0952
      3 C3          9.7644   -3.7375    0.3711 C.3       1 <0>        -0.1495
      4 C4          8.4073   -1.7805    1.1267 C.3       1 <0>         0.0613
      5 O1          7.8822   -1.5617   -0.1841 O.3       1 <0>        -0.3125
      6 C5          6.6252   -1.0519   -0.2680 C.ar      1 <0>         0.1324
      7 C6          6.0532   -0.8144   -1.5094 C.ar      1 <0>        -0.1498
      8 C7          4.7751   -0.2967   -1.5920 C.ar      1 <0>        -0.0710
      9 C8          4.0661   -0.0152   -0.4388 C.ar      1 <0>        -0.1200
     10 C9          4.6361   -0.2457    0.7996 C.ar      1 <0>        -0.0719
     11 C10         5.9117   -0.7686    0.8875 C.ar      1 <0>        -0.2064
     12 C11         2.6720    0.5496   -0.5319 C.3       1 <0>        -0.0295
     13 H1          2.4311    0.6659   -1.5989 H         1 <0>         0.0869
     14 C12         1.6836   -0.3963    0.1479 C.3       1 <0>        -0.1032
     15 C13         0.2791    0.1783    0.0705 C.2       1 <0>         0.2702
     16 C14         0.0847    1.5081    0.0857 C.2       1 <0>        -0.3038
     17 C15        -1.2509    2.2088    0.0147 C.3       1 <0>         0.2868
     18 H2         -1.3110    2.9023    0.8664 H         1 <0>         0.0922
     19 N1         -2.3955    1.3402    0.1888 N.pl3     1 <0>        -0.7823
     20 C16        -2.6852    0.3388   -0.7368 C.ar      1 <0>         0.1726
     21 C17        -3.8099    0.4033   -1.5434 C.ar      1 <0>        -0.1249
     22 C18        -3.9983   -0.5544   -2.5249 C.ar      1 <0>        -0.1091
     23 C19        -3.0739   -1.5680   -2.7007 C.ar      1 <0>        -0.1244
     24 C20        -1.9604   -1.6475   -1.8815 C.ar      1 <0>        -0.1168
     25 C21        -1.7801   -0.7010   -0.8880 C.ar      1 <0>         0.1150
     26 N2         -0.7108   -0.7476   -0.0013 N.pl3     1 <0>        -0.6990
     27 C22        -1.3645    2.8850   -1.3273 C.ar      1 <0>        -0.0832
     28 C23        -1.3675    2.1267   -2.4839 C.ar      1 <0>        -0.0835
     29 C24        -1.4771    2.7424   -3.7149 C.ar      1 <0>        -0.1363
     30 C25        -1.5730    4.1267   -3.7914 C.ar      1 <0>        -0.0814
     31 C26        -1.5639    4.8859   -2.6274 C.ar      1 <0>        -0.1033
     32 C27        -1.4597    4.2629   -1.3996 C.ar      1 <0>        -0.0715
     33 S1         -1.7064    4.9173   -5.3604 S.3       1 <0>        -0.1257
     34 C28        -1.6758    3.5456   -6.5471 C.3       1 <0>        -0.1446
     35 C29         1.1897    2.3884    0.1636 C.2       1 <0>         0.4001
     36 O2          0.9838    3.5856    0.2033 O.2       1 <0>        -0.4711
     37 C30         2.6056    1.8964    0.1983 C.3       1 <0>        -0.1599
     38 H3         10.4727   -1.4757    2.8856 H         1 <0>         0.0587
     39 H4         11.4483   -2.8827    2.3424 H         1 <0>         0.0667
     40 H5          9.8105   -3.1389    3.0342 H         1 <0>         0.0586
     41 H6         10.4428   -1.6854    0.4050 H         1 <0>         0.0823
     42 H7          9.3265   -3.6529   -0.6344 H         1 <0>         0.0627
     43 H8          9.1437   -4.4055    0.9864 H         1 <0>         0.0543
     44 H9         10.7815   -4.1493    0.2946 H         1 <0>         0.0585
     45 H10         7.7636   -2.4912    1.6657 H         1 <0>         0.0632
     46 H11         8.4381   -0.8264    1.6733 H         1 <0>         0.0631
     47 H12         6.6064   -1.0345   -2.4105 H         1 <0>         0.1309
     48 H13         4.3292   -0.1119   -2.5582 H         1 <0>         0.1287
     49 H14         4.0821   -0.0205    1.6989 H         1 <0>         0.1242
     50 H15         6.3549   -0.9527    1.8551 H         1 <0>         0.1274
     51 H16         1.7039   -1.3730   -0.3577 H         1 <0>         0.0901
     52 H17         1.9651   -0.5240    1.2036 H         1 <0>         0.0917
     53 H18        -3.0527    1.4648    1.0621 H         1 <0>         0.4162
     54 H19        -4.5334    1.1935   -1.4073 H         1 <0>         0.1235
     55 H20        -4.8724   -0.5097   -3.1576 H         1 <0>         0.1223
     56 H21        -3.2213   -2.3009   -3.4801 H         1 <0>         0.1242
     57 H22        -1.2393   -2.4400   -2.0170 H         1 <0>         0.1248
     58 H23        -0.7029   -1.6148    0.6754 H         1 <0>         0.4258
     59 H24        -1.2885    1.0512   -2.4238 H         1 <0>         0.1190
     60 H25        -1.4839    2.1493   -4.6174 H         1 <0>         0.1176
     61 H26        -1.6379    5.9620   -2.6832 H         1 <0>         0.1254
     62 H27        -1.4529    4.8522   -0.4946 H         1 <0>         0.1265
     63 H28        -1.7549    3.9435   -7.5696 H         1 <0>         0.1099
     64 H29        -2.5220    2.8710   -6.3497 H         1 <0>         0.0835
     65 H30        -0.7320    2.9905   -6.4416 H         1 <0>         0.0831
     66 H31         2.9314    1.7648    1.2407 H         1 <0>         0.1010
     67 H32         3.2660    2.6187   -0.3038 H         1 <0>         0.0972
@<TRIPOS>BOND
     1    1    2 1
     2    1   38 1
     3    1   39 1
     4    1   40 1
     5    2    3 1
     6    2    4 1
     7    2   41 1
     8    3   42 1
     9    3   43 1
    10    3   44 1
    11    4    5 1
    12    4   45 1
    13    4   46 1
    14    5    6 1
    15    6   11 ar
    16    6    7 ar
    17    7    8 ar
    18    7   47 1
    19    8    9 ar
    20    8   48 1
    21    9   10 ar
    22    9   12 1
    23   10   11 ar
    24   10   49 1
    25   11   50 1
    26   12   13 1
    27   12   37 1
    28   12   14 1
    29   14   15 1
    30   14   51 1
    31   14   52 1
    32   15   26 1
    33   15   16 2
    34   16   17 1
    35   16   35 1
    36   17   18 1
    37   17   19 1
    38   17   27 1
    39   19   20 1
    40   19   53 1
    41   20   25 ar
    42   20   21 ar
    43   21   22 ar
    44   21   54 1
    45   22   23 ar
    46   22   55 1
    47   23   24 ar
    48   23   56 1
    49   24   25 ar
    50   24   57 1
    51   25   26 1
    52   26   58 1
    53   27   32 ar
    54   27   28 ar
    55   28   29 ar
    56   28   59 1
    57   29   30 ar
    58   29   60 1
    59   30   31 ar
    60   30   33 1
    61   31   32 ar
    62   31   61 1
    63   32   62 1
    64   33   34 1
    65   34   63 1
    66   34   64 1
    67   34   65 1
    68   35   36 2
    69   35   37 1
    70   37   66 1
    71   37   67 1
@<TRIPOS>MOLECULE
ZINC21250647
   63    67     0     0     0
SMALL
USER_CHARGES
(6S,9R)-6-(2-fluorophenyl)-9-(4-isobutoxyphenyl)-5,6,8,9,10,11-hexahydrobenzo[c][1,5]benzodiazepin-7-one
@<TRIPOS>ATOM
      1 C1         -0.7438   -4.1723   11.7905 C.3       1 <0>        -0.1495
      2 C2         -1.7107   -3.0212   11.5061 C.3       1 <0>        -0.0951
      3 C3         -1.5353   -1.9337   12.5680 C.3       1 <0>        -0.1491
      4 C4         -1.4149   -2.4364   10.1235 C.3       1 <0>         0.0613
      5 O1         -1.6907   -3.4179    9.1222 O.3       1 <0>        -0.3126
      6 C5         -1.4789   -3.0567    7.8293 C.ar      1 <0>         0.1324
      7 C6         -1.7261   -3.9603    6.8061 C.ar      1 <0>        -0.1499
      8 C7         -1.5104   -3.5906    5.4926 C.ar      1 <0>        -0.0709
      9 C8         -1.0485   -2.3212    5.1974 C.ar      1 <0>        -0.1207
     10 C9         -0.7959   -1.4207    6.2158 C.ar      1 <0>        -0.0725
     11 C10        -1.0154   -1.7837    7.5306 C.ar      1 <0>        -0.2064
     12 C11        -0.8140   -1.9206    3.7637 C.3       1 <0>        -0.0323
     13 H1         -1.0542   -2.7883    3.1318 H         1 <0>         0.0909
     14 C12         0.6422   -1.4993    3.5754 C.3       1 <0>        -0.1016
     15 C13         0.8776   -1.0790    2.1338 C.2       1 <0>         0.2732
     16 C14        -0.1026   -0.4925    1.4275 C.2       1 <0>        -0.3083
     17 C15         0.0021   -0.0041    0.0020 C.3       1 <0>         0.2886
     18 H2         -0.8237   -0.4533   -0.5691 H         1 <0>         0.0944
     19 N1          1.1922   -0.4433   -0.6953 N.pl3     1 <0>        -0.7805
     20 C16         2.4607   -0.0344   -0.2847 C.ar      1 <0>         0.1713
     21 C17         3.2340    0.8127   -1.0620 C.ar      1 <0>        -0.1260
     22 C18         4.4393    1.2793   -0.5664 C.ar      1 <0>        -0.1088
     23 C19         4.8714    0.9030    0.6923 C.ar      1 <0>        -0.1231
     24 C20         4.1108    0.0399    1.4627 C.ar      1 <0>        -0.1152
     25 C21         2.9132   -0.4403    0.9618 C.ar      1 <0>         0.1176
     26 N2          2.1230   -1.3434    1.6635 N.pl3     1 <0>        -0.6965
     27 C22        -0.0184    1.5028    0.0103 C.ar      1 <0>        -0.1035
     28 C23         0.2349    2.1912    1.1818 C.ar      1 <0>        -0.0759
     29 C24         0.2167    3.5733    1.1896 C.ar      1 <0>        -0.1324
     30 C25        -0.0544    4.2688    0.0257 C.ar      1 <0>        -0.0922
     31 C26        -0.3074    3.5827   -1.1467 C.ar      1 <0>        -0.1576
     32 C27        -0.2851    2.1981   -1.1567 C.ar      1 <0>         0.1156
     33 F1         -0.5273    1.5263   -2.3035 F         1 <0>        -0.1375
     34 C28        -1.3755   -0.2859    2.0100 C.2       1 <0>         0.3980
     35 O2         -2.2391    0.2613    1.3526 O.2       1 <0>        -0.4703
     36 C29        -1.6971   -0.7183    3.4090 C.3       1 <0>        -0.1600
     37 H3         -0.8699   -4.9541   11.0271 H         1 <0>         0.0628
     38 H4         -0.9565   -4.5927   12.7845 H         1 <0>         0.0585
     39 H5          0.2901   -3.7976   11.7644 H         1 <0>         0.0544
     40 H6         -2.7446   -3.3959   11.5322 H         1 <0>         0.0824
     41 H7         -2.2305   -1.1061   12.3635 H         1 <0>         0.0587
     42 H8         -0.5014   -1.5591   12.5419 H         1 <0>         0.0586
     43 H9         -1.7480   -2.3541   13.5620 H         1 <0>         0.0667
     44 H10        -2.0488   -1.5532    9.9557 H         1 <0>         0.0630
     45 H11        -0.3560   -2.1436   10.0681 H         1 <0>         0.0632
     46 H12        -2.0872   -4.9518    7.0361 H         1 <0>         0.1311
     47 H13        -1.7030   -4.2935    4.6956 H         1 <0>         0.1299
     48 H14        -0.4306   -0.4314    5.9830 H         1 <0>         0.1231
     49 H15        -0.8223   -1.0785    8.3254 H         1 <0>         0.1271
     50 H16         0.8682   -0.6533    4.2412 H         1 <0>         0.0955
     51 H17         1.3029   -2.3443    3.8192 H         1 <0>         0.0881
     52 H18         1.1051   -1.1111   -1.5651 H         1 <0>         0.4164
     53 H19         2.8993    1.1064   -2.0459 H         1 <0>         0.1221
     54 H20         5.0462    1.9410   -1.1666 H         1 <0>         0.1221
     55 H21         5.8061    1.2843    1.0761 H         1 <0>         0.1240
     56 H22         4.4488   -0.2561    2.4448 H         1 <0>         0.1242
     57 H23         2.5750   -2.3325    1.8292 H         1 <0>         0.4268
     58 H24         0.4474    1.6490    2.0913 H         1 <0>         0.1202
     59 H25         0.4147    4.1104    2.1054 H         1 <0>         0.1249
     60 H26        -0.0680    5.3486    0.0329 H         1 <0>         0.1300
     61 H27        -0.5187    4.1261   -2.0558 H         1 <0>         0.1327
     62 H28        -2.7560   -1.0082    3.4776 H         1 <0>         0.0987
     63 H29        -1.4959    0.1042    4.1111 H         1 <0>         0.0998
@<TRIPOS>BOND
     1    1    2 1
     2    1   37 1
     3    1   38 1
     4    1   39 1
     5    2    3 1
     6    2    4 1
     7    2   40 1
     8    3   41 1
     9    3   42 1
    10    3   43 1
    11    4    5 1
    12    4   44 1
    13    4   45 1
    14    5    6 1
    15    6   11 ar
    16    6    7 ar
    17    7    8 ar
    18    7   46 1
    19    8    9 ar
    20    8   47 1
    21    9   10 ar
    22    9   12 1
    23   10   11 ar
    24   10   48 1
    25   11   49 1
    26   12   13 1
    27   12   36 1
    28   12   14 1
    29   14   15 1
    30   14   50 1
    31   14   51 1
    32   15   26 1
    33   15   16 2
    34   16   17 1
    35   16   34 1
    36   17   18 1
    37   17   19 1
    38   17   27 1
    39   19   20 1
    40   19   52 1
    41   20   25 ar
    42   20   21 ar
    43   21   22 ar
    44   21   53 1
    45   22   23 ar
    46   22   54 1
    47   23   24 ar
    48   23   55 1
    49   24   25 ar
    50   24   56 1
    51   25   26 1
    52   26   57 1
    53   27   32 ar
    54   27   28 ar
    55   28   29 ar
    56   28   58 1
    57   29   30 ar
    58   29   59 1
    59   30   31 ar
    60   30   60 1
    61   31   32 ar
    62   31   61 1
    63   32   33 1
    64   34   35 2
    65   34   36 1
    66   36   62 1
    67   36   63 1
@<TRIPOS>MOLECULE
ZINC39550629
   50    55     0     0     0
SMALL
USER_CHARGES

@<TRIPOS>ATOM
      1 C1         -0.0167    1.3792    0.0096 C.ar      1 <0>        -0.1142
      2 C2          1.1685    2.0928    0.0021 C.ar      1 <0>        -0.1203
      3 C3          2.3774    1.4277   -0.0130 C.ar      1 <0>        -0.0896
      4 C4          2.4028    0.0333   -0.0207 C.ar      1 <0>        -0.0099
      5 C5          1.2047   -0.6805   -0.0131 C.ar      1 <0>        -0.1023
      6 C6          0.0021   -0.0041    0.0020 C.ar      1 <0>        -0.1193
      7 C7          3.6974   -0.6869   -0.0375 C.2       1 <0>         0.0747
      8 C8          3.9703   -1.8910    0.5905 C.2       1 <0>         0.0407
      9 N1          5.2843   -2.1859    0.3108 N.pl3     1 <0>        -0.5521
     10 H1          5.7752   -2.9675    0.6090 H         1 <0>         0.4238
     11 C9          5.7683   -1.1721   -0.4661 C.2       1 <0>         0.2607
     12 N2          4.8147   -0.2922   -0.6690 N.2       1 <0>        -0.4527
     13 C10         7.1447   -1.0823   -0.9984 C.ar      1 <0>        -0.0004
     14 C11         8.0700   -2.0906   -0.7217 C.ar      1 <0>        -0.1199
     15 C12         9.3535   -2.0036   -1.2200 C.ar      1 <0>        -0.0970
     16 C13         9.7276   -0.9200   -1.9935 C.ar      1 <0>        -0.1343
     17 C14         8.8145    0.0873   -2.2738 C.ar      1 <0>         0.1109
     18 C15         7.5218    0.0072   -1.7835 C.ar      1 <0>        -0.1026
     19 O1          9.1877    1.1499   -3.0346 O.3       1 <0>        -0.4955
     20 C16         3.0362   -2.6977    1.3995 C.ar      1 <0>        -0.0277
     21 C17         2.2164   -2.0838    2.3491 C.ar      1 <0>        -0.0481
     22 C18         1.3493   -2.8390    3.1079 C.ar      1 <0>        -0.1151
     23 C19         1.2744   -4.2194    2.9375 C.ar      1 <0>         0.1373
     24 C20         2.0852   -4.8305    1.9824 C.ar      1 <0>        -0.1684
     25 C21         2.9608   -4.0813    1.2175 C.ar      1 <0>        -0.0505
     26 S1          1.9774   -6.5732    1.7325 S.3       1 <0>         0.0270
     27 C22         0.4436   -6.9888    2.4976 C.ar      1 <0>        -0.1728
     28 C23        -0.1640   -8.2010    2.2095 C.ar      1 <0>        -0.0603
     29 C24        -1.3706   -8.5272    2.8014 C.ar      1 <0>        -0.1235
     30 C25        -1.9673   -7.6414    3.6786 C.ar      1 <0>        -0.0806
     31 C26        -1.3632   -6.4340    3.9710 C.ar      1 <0>        -0.1202
     32 C27        -0.1476   -6.0949    3.3858 C.ar      1 <0>         0.1245
     33 O2          0.4223   -4.9187    3.7131 O.3       1 <0>        -0.2539
     34 H2         -0.9604    1.9042    0.0260 H         1 <0>         0.1227
     35 H3          1.1476    3.1726    0.0078 H         1 <0>         0.1250
     36 H4          3.3020    1.9858   -0.0192 H         1 <0>         0.1272
     37 H5          1.2180   -1.7604   -0.0194 H         1 <0>         0.1209
     38 H6         -0.9264   -0.5557    0.0083 H         1 <0>         0.1232
     39 H7          7.7812   -2.9380   -0.1176 H         1 <0>         0.1212
     40 H8         10.0685   -2.7840   -1.0050 H         1 <0>         0.1344
     41 H9         10.7339   -0.8571   -2.3806 H         1 <0>         0.1340
     42 H10         6.8091    0.7879   -2.0049 H         1 <0>         0.1449
     43 H11         9.0425    1.0253   -3.9825 H         1 <0>         0.3944
     44 H12         2.2626   -1.0139    2.4892 H         1 <0>         0.1446
     45 H13         0.7217   -2.3560    3.8423 H         1 <0>         0.1470
     46 H14         3.5881   -4.5652    0.4836 H         1 <0>         0.1353
     47 H15         0.3050   -8.8907    1.5234 H         1 <0>         0.1375
     48 H16        -1.8454   -9.4713    2.5784 H         1 <0>         0.1383
     49 H17        -2.9111   -7.8947    4.1384 H         1 <0>         0.1402
     50 H18        -1.8377   -5.7490    4.6580 H         1 <0>         0.1410
@<TRIPOS>BOND
     1    1    6 ar
     2    1    2 ar
     3    1   34 1
     4    2    3 ar
     5    2   35 1
     6    3    4 ar
     7    3   36 1
     8    4    5 ar
     9    4    7 1
    10    5    6 ar
    11    5   37 1
    12    6   38 1
    13    7   12 1
    14    7    8 2
    15    8    9 1
    16    8   20 1
    17    9   10 1
    18    9   11 1
    19   11   12 2
    20   11   13 1
    21   13   18 ar
    22   13   14 ar
    23   14   15 ar
    24   14   39 1
    25   15   16 ar
    26   15   40 1
    27   16   17 ar
    28   16   41 1
    29   17   18 ar
    30   17   19 1
    31   18   42 1
    32   19   43 1
    33   20   25 ar
    34   20   21 ar
    35   21   22 ar
    36   21   44 1
    37   22   23 ar
    38   22   45 1
    39   23   33 1
    40   23   24 ar
    41   24   25 ar
    42   24   26 1
    43   25   46 1
    44   26   27 1
    45   27   32 ar
    46   27   28 ar
    47   28   29 ar
    48   28   47 1
    49   29   30 ar
    50   29   48 1
    51   30   31 ar
    52   30   49 1
    53   31   32 ar
    54   31   50 1
    55   32   33 1
@<TRIPOS>MOLECULE
ZINC58847378
   51    55     0     0     0
SMALL
USER_CHARGES

@<TRIPOS>ATOM
      1 C1          1.6353    4.2818    6.1286 C.ar      1 <0>        -0.1034
      2 C2          2.6474    4.6398    5.2572 C.ar      1 <0>        -0.1010
      3 C3          3.5583    3.6927    4.8286 C.ar      1 <0>        -0.0938
      4 C4          3.4577    2.3868    5.2706 C.ar      1 <0>        -0.0945
      5 C5          2.4454    2.0280    6.1424 C.ar      1 <0>        -0.0347
      6 C6          1.5339    2.9767    6.5714 C.ar      1 <0>        -0.1052
      7 Cl1         2.3180    0.3881    6.6974 Cl        1 <0>        -0.0643
      8 C7          4.6611    4.0838    3.8789 C.3       1 <0>         0.2123
      9 H1          4.7928    5.1645    3.9314 H         1 <0>         0.0826
     10 C8          4.2377    3.7243    2.4860 C.3       1 <0>        -0.0940
     11 H2          3.5540    4.4874    2.1140 H         1 <0>         0.0974
     12 C9          3.5372    2.3514    2.4232 C.3       1 <0>        -0.0975
     13 C10         3.8222    1.8648    1.0176 C.2       1 <0>        -0.1581
     14 C11         4.8177    2.5260    0.4872 C.2       1 <0>        -0.1626
     15 C12         5.3626    3.5296    1.4730 C.3       1 <0>        -0.0071
     16 H3          5.5768    4.4670    0.9598 H         1 <0>         0.0898
     17 C13         6.6112    2.9540    2.0796 C.ar      1 <0>        -0.1630
     18 C14         7.5844    2.4498    1.2285 C.ar      1 <0>         0.0380
     19 C15         8.7435    1.9006    1.7384 C.ar      1 <0>        -0.7285
     20 C16         8.9436    1.8474    3.1059 C.ar      1 <0>         0.0257
     21 C17         7.9834    2.3499    3.9597 C.ar      1 <0>        -0.2124
     22 C18         6.8160    2.9096    3.4467 C.ar      1 <0>         0.2806
     23 N1          5.8881    3.4508    4.3157 N.pl3     1 <0>        -0.7206
     24 S1          9.9705    1.2652    0.6450 S.o2      1 <0>         2.6908
     25 O1         10.6361    0.2220    1.3435 O.2       1 <0>        -0.9549
     26 O2          9.3304    1.0566   -0.6065 O.2       1 <0>        -0.9517
     27 N2         11.0869    2.4657    0.4112 N.pl3     1 <0>        -1.0654
     28 C19        10.7057    3.6658   -0.1932 C.ar      1 <0>         0.1392
     29 C20        10.4822    3.7148   -1.5637 C.ar      1 <0>        -0.1009
     30 C21        10.1050    4.9025   -2.1586 C.ar      1 <0>        -0.0974
     31 C22         9.9499    6.0432   -1.3924 C.ar      1 <0>        -0.1018
     32 C23        10.1715    5.9985   -0.0271 C.ar      1 <0>        -0.0299
     33 C24        10.5438    4.8112    0.5752 C.ar      1 <0>        -0.1031
     34 Cl2         9.9761    7.4330    0.9307 Cl        1 <0>        -0.0632
     35 H4          0.9265    5.0232    6.4666 H         1 <0>         0.1359
     36 H5          2.7260    5.6598    4.9111 H         1 <0>         0.1321
     37 H6          4.1691    1.6467    4.9351 H         1 <0>         0.1347
     38 H7          0.7433    2.6971    7.2520 H         1 <0>         0.1353
     39 H8          3.9646    1.6695    3.1584 H         1 <0>         0.0807
     40 H9          2.4642    2.4615    2.5800 H         1 <0>         0.0743
     41 H10         3.2764    1.0768    0.5201 H         1 <0>         0.1271
     42 H11         5.2010    2.3645   -0.5095 H         1 <0>         0.1324
     43 H12         7.4337    2.4872    0.1597 H         1 <0>         0.1370
     44 H13         9.8488    1.4135    3.5043 H         1 <0>         0.1377
     45 H14         8.1373    2.3088    5.0279 H         1 <0>         0.1315
     46 H15         6.0593    3.3763    5.2676 H         1 <0>         0.4052
     47 H16        12.0056    2.3355    0.6940 H         1 <0>         0.4267
     48 H17        10.6038    2.8248   -2.1632 H         1 <0>         0.1427
     49 H18         9.9313    4.9407   -3.2239 H         1 <0>         0.1414
     50 H19         9.6555    6.9709   -1.8604 H         1 <0>         0.1383
     51 H20        10.7124    4.7753    1.6413 H         1 <0>         0.1393
@<TRIPOS>BOND
     1    1    6 ar
     2    1    2 ar
     3    1   35 1
     4    2    3 ar
     5    2   36 1
     6    3    4 ar
     7    3    8 1
     8    4    5 ar
     9    4   37 1
    10    5    6 ar
    11    5    7 1
    12    6   38 1
    13    8    9 1
    14    8   23 1
    15    8   10 1
    16   10   11 1
    17   10   15 1
    18   10   12 1
    19   12   13 1
    20   12   39 1
    21   12   40 1
    22   13   14 2
    23   13   41 1
    24   14   15 1
    25   14   42 1
    26   15   16 1
    27   15   17 1
    28   17   22 ar
    29   17   18 ar
    30   18   19 ar
    31   18   43 1
    32   19   20 ar
    33   19   24 1
    34   20   21 ar
    35   20   44 1
    36   21   22 ar
    37   21   45 1
    38   22   23 1
    39   23   46 1
    40   24   25 2
    41   24   26 2
    42   24   27 1
    43   27   28 1
    44   27   47 1
    45   28   33 ar
    46   28   29 ar
    47   29   30 ar
    48   29   48 1
    49   30   31 ar
    50   30   49 1
    51   31   32 ar
    52   31   50 1
    53   32   33 ar
    54   32   34 1
    55   33   51 1
@<TRIPOS>MOLECULE
ZINC04939267
   47    50     0     0     0
SMALL
USER_CHARGES
N-[2-(1-cyclohexenyl)ethyl]-methyl-oxo-BLAHcarboxamide
@<TRIPOS>ATOM
      1 C1         -5.2249    8.8854  -10.5550 C.3       1 <0>        -0.1165
      2 C2         -3.7194    8.8315  -10.5153 C.ar      1 <0>        -0.0980
      3 C3         -2.9803    9.4287  -11.5250 C.ar      1 <0>        -0.0603
      4 C4         -1.6017    9.3873  -11.5026 C.ar      1 <0>        -0.1213
      5 C5         -0.9402    8.7449  -10.4650 C.ar      1 <0>         0.1500
      6 C6         -1.6876    8.1386   -9.4400 C.ar      1 <0>        -0.0907
      7 C7         -3.0834    8.1890   -9.4766 C.ar      1 <0>        -0.0614
      8 C8         -0.9804    7.4676   -8.3558 C.2       1 <0>        -0.0882
      9 C9          0.4266    7.4275   -8.3355 C.2       1 <0>        -0.2254
     10 C10         0.9936    6.7615   -7.2434 C.2       1 <0>        -0.0104
     11 C11         0.1631    6.2069   -6.3127 C.2       1 <0>        -0.2422
     12 S1         -1.4564    6.6174   -6.9370 S.3       1 <0>         0.2420
     13 C12         0.5153    5.4637   -5.0977 C.2       1 <0>         0.6069
     14 O1          1.6842    5.2722   -4.8189 O.2       1 <0>        -0.5129
     15 N1         -0.4559    4.9931   -4.2903 N.am      1 <0>        -0.7247
     16 C13        -0.1043    4.2510   -3.0771 C.3       1 <0>         0.1249
     17 C14        -1.3821    3.8330   -2.3467 C.3       1 <0>        -0.0992
     18 C15        -1.0204    3.0696   -1.0987 C.2       1 <0>        -0.1234
     19 C16        -0.9522    3.7251    0.0154 C.2       1 <0>        -0.1440
     20 C17        -0.5951    3.1057    1.3349 C.3       1 <0>        -0.0925
     21 C18        -0.7392    1.5847    1.2635 C.3       1 <0>        -0.1218
     22 C19        -0.0127    1.0858    0.0080 C.3       1 <0>        -0.1215
     23 C20        -0.7612    1.5969   -1.2250 C.3       1 <0>        -0.0837
     24 C21         1.1060    8.0995   -9.4668 C.2       1 <0>         0.5459
     25 O2          2.3217    8.1045   -9.5149 O.2       1 <0>        -0.4419
     26 O3          0.4087    8.7009  -10.4365 O.3       1 <0>        -0.2655
     27 H1         -5.5705    9.7769  -10.0318 H         1 <0>         0.0770
     28 H2         -5.5600    8.9197  -11.5917 H         1 <0>         0.0737
     29 H3         -5.6331    7.9985  -10.0704 H         1 <0>         0.0711
     30 H4         -3.4881    9.9300  -12.3358 H         1 <0>         0.1455
     31 H5         -1.0356    9.8560  -12.2940 H         1 <0>         0.1501
     32 H6         -3.6623    7.7246   -8.6920 H         1 <0>         0.1374
     33 H7          2.0660    6.6850   -7.1405 H         1 <0>         0.1627
     34 H8         -1.3877    5.1458   -4.5125 H         1 <0>         0.3993
     35 H9          0.4963    4.8849   -2.4247 H         1 <0>         0.0747
     36 H10         0.4669    3.3629   -3.3472 H         1 <0>         0.0751
     37 H11        -1.9827    3.1992   -2.9990 H         1 <0>         0.0774
     38 H12        -1.9533    4.7212   -2.0766 H         1 <0>         0.0758
     39 H13        -1.1660    4.7835   -0.0058 H         1 <0>         0.1037
     40 H14         0.4362    3.3559    1.5841 H         1 <0>         0.0745
     41 H15        -1.2580    3.4946    2.1078 H         1 <0>         0.0719
     42 H16        -1.7956    1.3229    1.2039 H         1 <0>         0.0636
     43 H17        -0.2951    1.1298    2.1489 H         1 <0>         0.0658
     44 H18         0.0021   -0.0041    0.0020 H         1 <0>         0.0660
     45 H19         1.0088    1.4661    0.0003 H         1 <0>         0.0651
     46 H20        -0.1604    1.4108   -2.1152 H         1 <0>         0.0719
     47 H21        -1.7118    1.0711   -1.3142 H         1 <0>         0.0734
@<TRIPOS>BOND
     1    1    2 1
     2    1   27 1
     3    1   28 1
     4    1   29 1
     5    2    7 ar
     6    2    3 ar
     7    3    4 ar
     8    3   30 1
     9    4    5 ar
    10    4   31 1
    11    5   26 1
    12    5    6 ar
    13    6    7 ar
    14    6    8 1
    15    7   32 1
    16    8   12 1
    17    8    9 2
    18    9   10 1
    19    9   24 1
    20   10   11 2
    21   10   33 1
    22   11   12 1
    23   11   13 1
    24   13   14 2
    25   13   15 am
    26   15   16 1
    27   15   34 1
    28   16   17 1
    29   16   35 1
    30   16   36 1
    31   17   18 1
    32   17   37 1
    33   17   38 1
    34   18   23 1
    35   18   19 2
    36   19   20 1
    37   19   39 1
    38   20   21 1
    39   20   40 1
    40   20   41 1
    41   21   22 1
    42   21   42 1
    43   21   43 1
    44   22   23 1
    45   22   44 1
    46   22   45 1
    47   23   46 1
    48   23   47 1
    49   24   25 2
    50   24   26 1
@<TRIPOS>MOLECULE
ZINC05688730
   47    50     0     0     0
SMALL
USER_CHARGES
(E)-3-(4-hydroxyphenyl)-2-(1-methyl-2-phenyl-indole-3-carbonyl)prop-2-enenitrile
@<TRIPOS>ATOM
      1 C1          0.1391    0.9712    0.3603 C.3       1 <0>         0.0639
      2 N1         -0.5481    1.5716    1.5064 N.pl3     1 <0>        -0.4655
      3 C2          0.0812    2.0672    2.6307 C.ar      1 <0>         0.0987
      4 C3          1.4190    2.1513    3.0047 C.ar      1 <0>        -0.1216
      5 C4          1.7612    2.7093    4.2172 C.ar      1 <0>        -0.0977
      6 C5          0.7832    3.1923    5.0747 C.ar      1 <0>        -0.1337
      7 C6         -0.5467    3.1186    4.7234 C.ar      1 <0>        -0.0774
      8 C7         -0.9075    2.5561    3.5000 C.ar      1 <0>        -0.0669
      9 C8         -2.1977    2.3251    2.8276 C.2       1 <0>        -0.2405
     10 C9         -1.8996    1.7250    1.6105 C.2       1 <0>         0.1775
     11 C10        -2.8878    1.3150    0.5940 C.ar      1 <0>        -0.0507
     12 C11        -4.0459    0.6332    0.9759 C.ar      1 <0>        -0.0908
     13 C12        -4.9676    0.2578    0.0210 C.ar      1 <0>        -0.1138
     14 C13        -4.7420    0.5448   -1.3138 C.ar      1 <0>        -0.1047
     15 C14        -3.5946    1.2152   -1.6999 C.ar      1 <0>        -0.1168
     16 C15        -2.6669    1.6018   -0.7554 C.ar      1 <0>        -0.1045
     17 C16        -3.5292    2.6652    3.3382 C.2       1 <0>         0.4972
     18 O1         -4.1779    1.8344    3.9493 O.2       1 <0>        -0.4337
     19 C17        -4.0825    4.0105    3.1125 C.2       1 <0>        -0.1403
     20 C18        -5.2845    4.3661    3.6848 C.2       1 <0>         0.0672
     21 C19        -5.7618    5.7470    3.5872 C.ar      1 <0>        -0.1189
     22 C20        -4.8487    6.8112    3.6148 C.ar      1 <0>        -0.0683
     23 C21        -5.2998    8.0970    3.5190 C.ar      1 <0>        -0.1470
     24 C22        -6.6625    8.3524    3.4041 C.ar      1 <0>         0.1349
     25 C23        -7.5736    7.3014    3.3814 C.ar      1 <0>        -0.1508
     26 C24        -7.1344    6.0110    3.4716 C.ar      1 <0>        -0.0610
     27 O2         -7.1048    9.6320    3.3141 O.3       1 <0>        -0.4970
     28 C25        -3.3716    4.9498    2.2982 C.1       1 <0>         0.2562
     29 N2         -2.8076    5.6948    1.6522 N.1       1 <0>        -0.4047
     30 H1          0.2429   -0.1020    0.5204 H         1 <0>         0.0768
     31 H2          1.1267    1.4198    0.2530 H         1 <0>         0.0872
     32 H3         -0.4411    1.1490   -0.5451 H         1 <0>         0.0906
     33 H4          2.1887    1.7786    2.3452 H         1 <0>         0.1221
     34 H5          2.8009    2.7714    4.5028 H         1 <0>         0.1290
     35 H6          1.0659    3.6275    6.0218 H         1 <0>         0.1275
     36 H7         -1.3063    3.4945    5.3928 H         1 <0>         0.1233
     37 H8         -4.2210    0.4046    2.0168 H         1 <0>         0.1352
     38 H9         -5.8653   -0.2657    0.3152 H         1 <0>         0.1314
     39 H10        -5.4651    0.2445   -2.0577 H         1 <0>         0.1281
     40 H11        -3.4254    1.4366   -2.7434 H         1 <0>         0.1288
     41 H12        -1.7721    2.1253   -1.0581 H         1 <0>         0.1247
     42 H13        -5.8746    3.6263    4.2053 H         1 <0>         0.1657
     43 H14        -3.7909    6.6143    3.7081 H         1 <0>         0.1301
     44 H15        -4.5974    8.9172    3.5364 H         1 <0>         0.1354
     45 H16        -8.6303    7.5060    3.2927 H         1 <0>         0.1379
     46 H17        -7.8427    5.1959    3.4543 H         1 <0>         0.1396
     47 H18        -7.2997   10.0417    4.1681 H         1 <0>         0.3973
@<TRIPOS>BOND
     1    1    2 1
     2    1   30 1
     3    1   31 1
     4    1   32 1
     5    2   10 1
     6    2    3 1
     7    3    8 ar
     8    3    4 ar
     9    4    5 ar
    10    4   33 1
    11    5    6 ar
    12    5   34 1
    13    6    7 ar
    14    6   35 1
    15    7    8 ar
    16    7   36 1
    17    8    9 1
    18    9   10 2
    19    9   17 1
    20   10   11 1
    21   11   16 ar
    22   11   12 ar
    23   12   13 ar
    24   12   37 1
    25   13   14 ar
    26   13   38 1
    27   14   15 ar
    28   14   39 1
    29   15   16 ar
    30   15   40 1
    31   16   41 1
    32   17   18 2
    33   17   19 1
    34   19   20 2
    35   19   28 1
    36   20   21 1
    37   20   42 1
    38   21   26 ar
    39   21   22 ar
    40   22   23 ar
    41   22   43 1
    42   23   24 ar
    43   23   44 1
    44   24   25 ar
    45   24   27 1
    46   25   26 ar
    47   25   45 1
    48   26   46 1
    49   27   47 1
    50   28   29 3
@<TRIPOS>MOLECULE
ZINC24751526
   39    42     0     0     0
SMALL
USER_CHARGES
(5Z)-5-[[5-(2-fluorophenyl)-2-thienyl]methylene]-3-(2-furylmethyl)-2-thioxo-imidazolidin-4-one
@<TRIPOS>ATOM
      1 C1          2.4024    0.0168   -0.0203 C.ar      1 <0>        -0.1273
      2 C2          1.2075   -0.6819   -0.0131 C.ar      1 <0>        -0.0731
      3 C3          0.0021   -0.0041    0.0020 C.ar      1 <0>        -0.1507
      4 C4         -0.0167    1.3778    0.0096 C.ar      1 <0>         0.1203
      5 C5          1.1875    2.0892    0.0019 C.ar      1 <0>        -0.0624
      6 C6          2.3999    1.3959   -0.0129 C.ar      1 <0>        -0.0600
      7 C7          1.1772    3.5654    0.0105 C.2       1 <0>        -0.0723
      8 C8          1.8686    4.4357    0.8392 C.2       1 <0>        -0.1477
      9 C9          1.7084    5.7803    0.6614 C.2       1 <0>        -0.0840
     10 C10         0.8463    6.2219   -0.3389 C.2       1 <0>        -0.1742
     11 S1          0.2653    4.6856   -1.0385 S.3       1 <0>         0.0834
     12 C11         0.5158    7.5450   -0.7053 C.2       1 <0>         0.0644
     13 C12        -0.3614    7.7715   -1.7258 C.2       1 <0>        -0.0189
     14 C13        -0.7967    9.0323   -2.2155 C.2       1 <0>         0.5530
     15 O1         -0.4570   10.1265   -1.8018 O.2       1 <0>        -0.4466
     16 N1         -1.6567    8.7888   -3.2236 N.am      1 <0>        -0.5319
     17 C14        -1.7859    7.4624   -3.3942 C.cat     1 <0>         0.5155
     18 S2         -2.7820    6.7146   -4.5687 S.3       1 <0>        -0.5193
     19 N2         -1.0114    6.8088   -2.5080 N.pl3     1 <0>        -0.6097
     20 C15        -2.3458    9.8131   -4.0124 C.3       1 <0>         0.1972
     21 C16        -1.5029   10.1786   -5.2069 C.2       1 <0>        -0.0623
     22 C17        -1.5494    9.5859   -6.4135 C.2       1 <0>        -0.1574
     23 C18        -0.5986   10.2416   -7.2289 C.2       1 <0>        -0.2207
     24 C19        -0.0220   11.1904   -6.4694 C.2       1 <0>        -0.0238
     25 O2         -0.5737   11.1476   -5.2456 O.3       1 <0>        -0.1698
     26 F1         -1.1945    2.0395    0.0188 F         1 <0>        -0.1282
     27 H1          3.3396   -0.5197   -0.0314 H         1 <0>         0.1391
     28 H2          1.2166   -1.7618   -0.0190 H         1 <0>         0.1402
     29 H3         -0.9264   -0.5557    0.0076 H         1 <0>         0.1442
     30 H4          3.3336    1.9387   -0.0189 H         1 <0>         0.1397
     31 H5          2.5246    4.0573    1.6091 H         1 <0>         0.1502
     32 H6          2.2357    6.4859    1.2863 H         1 <0>         0.1526
     33 H7          0.9654    8.3931   -0.1681 H         1 <0>         0.1871
     34 H8         -3.3157    9.4221   -4.3538 H         1 <0>         0.1454
     35 H9         -2.5086   10.7063   -3.3913 H         1 <0>         0.1209
     36 H10        -2.1916    8.7677   -6.7043 H         1 <0>         0.1611
     37 H11        -0.3749   10.0203   -8.2621 H         1 <0>         0.1521
     38 H12         0.7528   11.8712   -6.7895 H         1 <0>         0.2056
     39 H13        -0.9857    5.7091   -2.5060 H         1 <0>         0.4686
@<TRIPOS>BOND
     1    1    6 ar
     2    1    2 ar
     3    1   27 1
     4    2    3 ar
     5    2   28 1
     6    3    4 ar
     7    3   29 1
     8    4    5 ar
     9    4   26 1
    10    5    6 ar
    11    5    7 1
    12    6   30 1
    13    7   11 1
    14    7    8 2
    15    8    9 1
    16    8   31 1
    17    9   10 2
    18    9   32 1
    19   10   11 1
    20   10   12 1
    21   12   13 2
    22   12   33 1
    23   13   19 1
    24   13   14 1
    25   14   15 2
    26   14   16 am
    27   16   17 1
    28   16   20 1
    29   17   18 1
    30   17   19 2
    31   19   39 1
    32   20   21 1
    33   20   34 1
    34   20   35 1
    35   21   25 1
    36   21   22 2
    37   22   23 1
    38   22   36 1
    39   23   24 2
    40   23   37 1
    41   24   25 1
    42   24   38 1
@<TRIPOS>MOLECULE
ZINC39552732
   34    35     0     0     0
SMALL
USER_CHARGES

@<TRIPOS>ATOM
      1 C1         -0.0187    1.5258    0.0104 C.3       1 <0>        -0.1604
      2 C2          0.0021   -0.0041    0.0020 C.3       1 <0>         0.1824
      3 H1         -1.0205   -0.3814    0.0098 H         1 <0>         0.1051
      4 C3          0.7074   -0.4901   -1.2379 C.ar      1 <0>        -0.0802
      5 C4          2.0889   -0.5108   -1.2837 C.ar      1 <0>        -0.1067
      6 C5          2.7363   -0.9568   -2.4205 C.ar      1 <0>        -0.0844
      7 C6          2.0017   -1.3826   -3.5124 C.ar      1 <0>        -0.0886
      8 C7          0.6193   -1.3617   -3.4661 C.ar      1 <0>        -0.0858
      9 C8         -0.0272   -0.9204   -2.3270 C.ar      1 <0>        -0.0991
     10 Br1         2.8868   -1.9925   -5.0682 Br        1 <0>        -0.0461
     11 N1          0.7106   -0.4894    1.1889 N.am      1 <0>        -0.7023
     12 C9          0.0512   -0.6335    2.3554 C.2       1 <0>         0.5708
     13 O1         -1.1308   -0.3609    2.4228 O.2       1 <0>        -0.4951
     14 C10         0.7689   -1.1250    3.5576 C.ar      1 <0>         0.1578
     15 C11         0.0949   -1.2838    4.7702 C.ar      1 <0>        -0.1123
     16 C12         0.8098   -1.7469    5.8679 C.ar      1 <0>         0.1842
     17 N2          2.0949   -2.0208    5.7320 N.ar      1 <0>        -0.4992
     18 C13         2.7076   -1.8598    4.5668 C.ar      1 <0>         0.2948
     19 N3          2.0635   -1.4266    3.4954 N.ar      1 <0>        -0.4669
     20 S1          4.4235   -2.2400    4.4405 S.3       1 <0>         0.0212
     21 C14         4.8749   -2.7908    6.1089 C.3       1 <0>        -0.1467
     22 Cl1        -1.5954   -0.9109    4.9031 Cl        1 <0>         0.0072
     23 H2          1.0039    1.9031    0.0027 H         1 <0>         0.0623
     24 H3         -0.5459    1.8868   -0.8726 H         1 <0>         0.0734
     25 H4         -0.5289    1.8773    0.9072 H         1 <0>         0.0693
     26 H5          2.6625   -0.1780   -0.4312 H         1 <0>         0.1315
     27 H6          3.8156   -0.9726   -2.4563 H         1 <0>         0.1365
     28 H7          0.0453   -1.6941   -4.3184 H         1 <0>         0.1366
     29 H8         -1.1065   -0.9080   -2.2892 H         1 <0>         0.1363
     30 H9          1.6544   -0.7070    1.1351 H         1 <0>         0.4116
     31 H10         0.3205   -1.8812    6.8213 H         1 <0>         0.1904
     32 H11         4.2795   -3.6636    6.3768 H         1 <0>         0.0928
     33 H12         5.9329   -3.0519    6.1314 H         1 <0>         0.1165
     34 H13         4.6835   -1.9879    6.8208 H         1 <0>         0.0929
@<TRIPOS>BOND
     1    1    2 1
     2    1   23 1
     3    1   24 1
     4    1   25 1
     5    2    3 1
     6    2    4 1
     7    2   11 1
     8    4    9 ar
     9    4    5 ar
    10    5    6 ar
    11    5   26 1
    12    6    7 ar
    13    6   27 1
    14    7    8 ar
    15    7   10 1
    16    8    9 ar
    17    8   28 1
    18    9   29 1
    19   11   12 am
    20   11   30 1
    21   12   13 2
    22   12   14 1
    23   14   19 ar
    24   14   15 ar
    25   15   16 ar
    26   15   22 1
    27   16   17 ar
    28   16   31 1
    29   17   18 ar
    30   18   19 ar
    31   18   20 1
    32   20   21 1
    33   21   32 1
    34   21   33 1
    35   21   34 1
@<TRIPOS>MOLECULE
ZINC60214745
   38    40     0     0     0
SMALL
USER_CHARGES

@<TRIPOS>ATOM
      1 C1         -0.0187    1.5258    0.0104 C.3       1 <0>        -0.1433
      2 C2          0.0021   -0.0041    0.0020 C.3       1 <0>        -0.0299
      3 C3          0.7421   -0.5109    1.2415 C.3       1 <0>        -0.1431
      4 C4         -1.4333   -0.5336    0.0129 C.3       1 <0>         0.1280
      5 N1         -2.1190   -0.0612    1.2182 N.am      1 <0>        -0.7226
      6 C5         -3.4027   -0.4055    1.4419 C.2       1 <0>         0.5751
      7 O1         -3.9920   -1.1086    0.6429 O.2       1 <0>        -0.5178
      8 C6         -4.0910    0.0687    2.6516 C.2       1 <0>        -0.1811
      9 C7         -3.4263    0.9091    3.6200 C.2       1 <0>        -0.1028
     10 C8         -4.1683    1.2748    4.6849 C.2       1 <0>        -0.1506
     11 S1         -5.7358    0.4917    4.3740 S.3       1 <0>         0.2890
     12 C9         -5.4032   -0.2629    2.9129 C.2       1 <0>        -0.1194
     13 Cl1        -6.4677   -1.2403    1.9510 Cl        1 <0>         0.0607
     14 Cl2        -3.7066    2.2678    6.0319 Cl        1 <0>         0.0312
     15 C10         0.7074   -0.4901   -1.2379 C.ar      1 <0>        -0.0610
     16 C11         0.0346   -1.2843   -2.1477 C.ar      1 <0>        -0.1103
     17 C12         0.6772   -1.7322   -3.2868 C.ar      1 <0>        -0.0942
     18 C13         1.9984   -1.3860   -3.5189 C.ar      1 <0>         0.0295
     19 C14         2.6763   -0.5860   -2.6024 C.ar      1 <0>         0.0352
     20 C15         2.0241   -0.1361   -1.4658 C.ar      1 <0>        -0.0923
     21 O2          3.9496   -0.3890   -3.0531 O.3       1 <0>        -0.3087
     22 C16         4.1683   -1.4092   -4.0454 C.3       1 <0>         0.2131
     23 O3          2.8470   -1.6902   -4.5440 O.3       1 <0>        -0.3086
     24 H1          1.0039    1.9031    0.0027 H         1 <0>         0.0653
     25 H2         -0.5459    1.8868   -0.8726 H         1 <0>         0.0641
     26 H3         -0.5289    1.8773    0.9072 H         1 <0>         0.0599
     27 H4          0.2319   -0.1594    2.1383 H         1 <0>         0.0598
     28 H5          0.7568   -1.6008    1.2356 H         1 <0>         0.0638
     29 H6          1.7647   -0.1336    1.2338 H         1 <0>         0.0652
     30 H7         -1.9605   -0.1726   -0.8702 H         1 <0>         0.0773
     31 H8         -1.4185   -1.6235    0.0069 H         1 <0>         0.0772
     32 H9         -1.6491    0.4994    1.8553 H         1 <0>         0.3988
     33 H10        -2.4003    1.2242    3.4992 H         1 <0>         0.1571
     34 H11        -0.9952   -1.5557   -1.9680 H         1 <0>         0.1434
     35 H12         0.1491   -2.3525   -3.9958 H         1 <0>         0.1377
     36 H13         2.5459    0.4882   -0.7556 H         1 <0>         0.1356
     37 H14         4.8078   -1.0351   -4.8449 H         1 <0>         0.1331
     38 H15         4.6032   -2.2991   -3.5904 H         1 <0>         0.0857
@<TRIPOS>BOND
     1    1    2 1
     2    1   24 1
     3    1   25 1
     4    1   26 1
     5    2    3 1
     6    2    4 1
     7    2   15 1
     8    3   27 1
     9    3   28 1
    10    3   29 1
    11    4    5 1
    12    4   30 1
    13    4   31 1
    14    5    6 am
    15    5   32 1
    16    6    7 2
    17    6    8 1
    18    8   12 2
    19    8    9 1
    20    9   10 2
    21    9   33 1
    22   10   11 1
    23   10   14 1
    24   11   12 1
    25   12   13 1
    26   15   20 ar
    27   15   16 ar
    28   16   17 ar
    29   16   34 1
    30   17   18 ar
    31   17   35 1
    32   18   23 1
    33   18   19 ar
    34   19   20 ar
    35   19   21 1
    36   20   36 1
    37   21   22 1
    38   22   23 1
    39   22   37 1
    40   22   38 1
@<TRIPOS>MOLECULE
ZINC00679742
   29    31     0     0     0
SMALL
USER_CHARGES
4-cyano-N-(4,5-dichlorobenzothiazol-2-yl)-2-fluoro-benzamide
@<TRIPOS>ATOM
      1 C1         -4.4658    5.2086    0.0531 C.ar      1 <0>        -0.0869
      2 C2         -3.3819    4.3602    0.0427 C.ar      1 <0>        -0.0560
      3 C3         -2.0859    4.8816    0.0390 C.ar      1 <0>        -0.1480
      4 C4         -1.8900    6.2670    0.0513 C.ar      1 <0>         0.1723
      5 C5         -2.9782    7.1165    0.0560 C.ar      1 <0>        -0.1145
      6 C6         -4.2718    6.5923    0.0596 C.ar      1 <0>         0.0424
      7 C7         -5.4008    7.4731    0.0705 C.1       1 <0>         0.2414
      8 N1         -6.2965    8.1719    0.0791 N.1       1 <0>        -0.3818
      9 F1         -0.6373    6.7728    0.0535 F         1 <0>        -0.1015
     10 C8         -0.9230    3.9709    0.0282 C.2       1 <0>         0.5514
     11 O1          0.2046    4.4250    0.0251 O.2       1 <0>        -0.4325
     12 N2         -1.1121    2.6365    0.0219 N.am      1 <0>        -0.6119
     13 C9         -0.0222    1.7830    0.0118 C.2       1 <0>         0.3819
     14 N3          1.2564    2.0804    0.0012 N.2       1 <0>        -0.4966
     15 C10         2.2214    1.1353   -0.0131 C.ar      1 <0>         0.1254
     16 C11         1.7675   -0.2033   -0.0159 C.ar      1 <0>        -0.1452
     17 S1          0.0021   -0.0041    0.0020 S.3       1 <0>         0.0411
     18 C12         2.6233   -1.2762   -0.0302 C.ar      1 <0>        -0.0417
     19 C13         3.9894   -1.0608   -0.0418 C.ar      1 <0>        -0.0834
     20 C14         4.4724    0.2405   -0.0390 C.ar      1 <0>        -0.0199
     21 C15         3.6240    1.3195   -0.0250 C.ar      1 <0>         0.0114
     22 Cl1         4.2792    2.9271   -0.0226 Cl        1 <0>        -0.0178
     23 Cl2         6.1874    0.5093   -0.0539 Cl        1 <0>        -0.0330
     24 H1         -5.4673    4.8043    0.0566 H         1 <0>         0.1532
     25 H2         -3.5334    3.2909    0.0377 H         1 <0>         0.1485
     26 H3         -2.8286    8.1861    0.0614 H         1 <0>         0.1591
     27 H4         -2.0119    2.2742    0.0245 H         1 <0>         0.4303
     28 H5          2.2322   -2.2829   -0.0317 H         1 <0>         0.1522
     29 H6          4.6734   -1.8966   -0.0529 H         1 <0>         0.1601
@<TRIPOS>BOND
     1    1    6 ar
     2    1    2 ar
     3    1   24 1
     4    2    3 ar
     5    2   25 1
     6    3    4 ar
     7    3   10 1
     8    4    5 ar
     9    4    9 1
    10    5    6 ar
    11    5   26 1
    12    6    7 1
    13    7    8 3
    14   10   11 2
    15   10   12 am
    16   12   13 1
    17   12   27 1
    18   13   17 1
    19   13   14 2
    20   14   15 1
    21   15   21 ar
    22   15   16 ar
    23   16   17 1
    24   16   18 ar
    25   18   19 ar
    26   18   28 1
    27   19   20 ar
    28   19   29 1
    29   20   21 ar
    30   20   23 1
    31   21   22 1
@<TRIPOS>MOLECULE
ZINC08042189
   38    41     0     0     0
SMALL
USER_CHARGES
5-[2-(4-fluorophenyl)aminothiazol-4-yl]-1-methyl-indolin-2-one
@<TRIPOS>ATOM
      1 C1         -6.2140    3.8700   -0.4005 C.3       1 <0>         0.0758
      2 N1         -4.8129    4.2921   -0.3312 N.am      1 <0>        -0.5541
      3 C2         -3.7325    3.4085   -0.3482 C.ar      1 <0>         0.1513
      4 C3         -3.6979    2.0164   -0.4282 C.ar      1 <0>        -0.1368
      5 C4         -2.4929    1.3503   -0.4286 C.ar      1 <0>        -0.0648
      6 C5         -1.2967    2.0625   -0.3490 C.ar      1 <0>        -0.0470
      7 C6         -1.3289    3.4547   -0.2635 C.ar      1 <0>        -0.0291
      8 C7         -2.5362    4.1121   -0.2691 C.ar      1 <0>        -0.1456
      9 C8         -2.9076    5.5755   -0.1957 C.3       1 <0>        -0.1132
     10 C9         -4.4206    5.5741   -0.2440 C.2       1 <0>         0.5252
     11 O1         -5.1432    6.5477   -0.2104 O.2       1 <0>        -0.4993
     12 C10         0.0010    1.3444   -0.3489 C.2       1 <0>         0.1392
     13 C11         0.0409   -0.0092   -0.5290 C.2       1 <0>        -0.2335
     14 S1          1.8021   -0.3053   -0.4457 S.3       1 <0>         0.0198
     15 C12         2.3036    1.3897   -0.1816 C.2       1 <0>         0.3642
     16 N2          1.1392    2.0127   -0.1790 N.2       1 <0>        -0.5530
     17 N3          3.5775    1.9121   -0.0222 N.pl3     1 <0>        -0.6104
     18 C13         4.6789    1.0545    0.0683 C.ar      1 <0>         0.1489
     19 C14         4.5450   -0.1879    0.6746 C.ar      1 <0>        -0.1287
     20 C15         5.6326   -1.0350    0.7586 C.ar      1 <0>        -0.1154
     21 C16         6.8585   -0.6421    0.2483 C.ar      1 <0>         0.0839
     22 C17         6.9956    0.5982   -0.3519 C.ar      1 <0>        -0.1199
     23 C18         5.9095    1.4464   -0.4429 C.ar      1 <0>        -0.1127
     24 F1          7.9222   -1.4704    0.3357 F         1 <0>        -0.1353
     25 H1         -6.5942    3.7055    0.6077 H         1 <0>         0.0684
     26 H2         -6.8035    4.6458   -0.8891 H         1 <0>         0.0850
     27 H3         -6.2868    2.9445   -0.9717 H         1 <0>         0.0805
     28 H4         -4.6206    1.4584   -0.4898 H         1 <0>         0.1308
     29 H5         -2.4740    0.2722   -0.4905 H         1 <0>         0.1352
     30 H6         -0.4077    4.0146   -0.1974 H         1 <0>         0.1395
     31 H7         -2.4987    6.1166   -1.0491 H         1 <0>         0.1249
     32 H8         -2.5557    6.0146    0.7378 H         1 <0>         0.1250
     33 H9         -0.7686   -0.7079   -0.6804 H         1 <0>         0.1990
     34 H10         3.7053    2.8724    0.0265 H         1 <0>         0.4289
     35 H11         3.5902   -0.4929    1.0767 H         1 <0>         0.1409
     36 H12         5.5279   -2.0028    1.2263 H         1 <0>         0.1448
     37 H13         7.9526    0.9024   -0.7496 H         1 <0>         0.1454
     38 H14         6.0168    2.4135   -0.9114 H         1 <0>         0.1422
@<TRIPOS>BOND
     1    1    2 1
     2    1   25 1
     3    1   26 1
     4    1   27 1
     5    2   10 am
     6    2    3 1
     7    3    8 ar
     8    3    4 ar
     9    4    5 ar
    10    4   28 1
    11    5    6 ar
    12    5   29 1
    13    6    7 ar
    14    6   12 1
    15    7    8 ar
    16    7   30 1
    17    8    9 1
    18    9   10 1
    19    9   31 1
    20    9   32 1
    21   10   11 2
    22   12   16 1
    23   12   13 2
    24   13   14 1
    25   13   33 1
    26   14   15 1
    27   15   16 2
    28   15   17 1
    29   17   18 1
    30   17   34 1
    31   18   23 ar
    32   18   19 ar
    33   19   20 ar
    34   19   35 1
    35   20   21 ar
    36   20   36 1
    37   21   22 ar
    38   21   24 1
    39   22   23 ar
    40   22   37 1
    41   23   38 1
@<TRIPOS>MOLECULE
ZINC35316383
   40    43     0     0     0
SMALL
USER_CHARGES

@<TRIPOS>ATOM
      1 C1          0.2290    1.4655   -0.0078 C.3       1 <0>         0.0255
      2 O1          0.3393    0.0408   -0.0043 O.3       1 <0>        -0.3159
      3 C2          0.8669   -0.5400   -1.1139 C.ar      1 <0>         0.1365
      4 C3          1.2755    0.2457   -2.1818 C.ar      1 <0>        -0.2056
      5 C4          1.8119   -0.3470   -3.3084 C.ar      1 <0>        -0.0608
      6 C5          1.9414   -1.7221   -3.3725 C.ar      1 <0>        -0.1323
      7 C6          1.5346   -2.5074   -2.3096 C.ar      1 <0>        -0.0654
      8 C7          1.0032   -1.9191   -1.1783 C.ar      1 <0>        -0.1466
      9 C8          2.5265   -2.3661   -4.6029 C.3       1 <0>         0.0507
     10 H1          2.7878   -1.5980   -5.3308 H         1 <0>         0.1088
     11 C9          3.7792   -3.1661   -4.2224 C.3       1 <0>        -0.1269
     12 C10         4.1362   -4.1464   -5.3033 C.2       1 <0>         0.5239
     13 O2          5.3084   -4.3304   -5.5554 O.2       1 <0>        -0.5209
     14 N1          3.2122   -4.8291   -6.0046 N.am      1 <0>        -0.6428
     15 C11         1.8484   -4.4642   -5.8628 C.2       1 <0>         0.0764
     16 C12         1.5311   -3.3099   -5.2003 C.2       1 <0>        -0.2694
     17 S1         -0.1285   -3.2445   -5.2385 S.3       1 <0>         0.4100
     18 N2         -0.4502   -4.6393   -6.1095 N.2       1 <0>        -0.4418
     19 C13         0.7404   -5.1546   -6.3534 C.2       1 <0>         0.1307
     20 C14         0.8938   -6.4151   -7.1196 C.ar      1 <0>        -0.0359
     21 C15         1.8100   -7.3796   -6.7035 C.ar      1 <0>        -0.1061
     22 C16         1.9481   -8.5509   -7.4201 C.ar      1 <0>        -0.1151
     23 C17         1.1795   -8.7687   -8.5493 C.ar      1 <0>        -0.1047
     24 C18         0.2690   -7.8148   -8.9672 C.ar      1 <0>        -0.1170
     25 C19         0.1182   -6.6423   -8.2551 C.ar      1 <0>        -0.0812
     26 H2          1.2188    1.9063   -0.1266 H         1 <0>         0.0572
     27 H3         -0.4096    1.7784   -0.8339 H         1 <0>         0.0576
     28 H4         -0.2064    1.7986    0.9343 H         1 <0>         0.1022
     29 H5          1.1739    1.3198   -2.1326 H         1 <0>         0.1321
     30 H6          2.1301    0.2642   -4.1401 H         1 <0>         0.1295
     31 H7          1.6364   -3.5813   -2.3622 H         1 <0>         0.1276
     32 H8          0.6897   -2.5326   -0.3466 H         1 <0>         0.1342
     33 H9          4.6117   -2.4787   -4.0725 H         1 <0>         0.1185
     34 H10         3.5909   -3.7075   -3.2953 H         1 <0>         0.1096
     35 H11         3.4728   -5.5540   -6.5940 H         1 <0>         0.4158
     36 H12         2.4109   -7.2104   -5.8222 H         1 <0>         0.1245
     37 H13         2.6580   -9.2988   -7.0988 H         1 <0>         0.1301
     38 H14         1.2909   -9.6868   -9.1071 H         1 <0>         0.1280
     39 H15        -0.3281   -7.9899   -9.8500 H         1 <0>         0.1298
     40 H16        -0.5964   -5.9003   -8.5795 H         1 <0>         0.1290
@<TRIPOS>BOND
     1    1    2 1
     2    1   26 1
     3    1   27 1
     4    1   28 1
     5    2    3 1
     6    3    8 ar
     7    3    4 ar
     8    4    5 ar
     9    4   29 1
    10    5    6 ar
    11    5   30 1
    12    6    7 ar
    13    6    9 1
    14    7    8 ar
    15    7   31 1
    16    8   32 1
    17    9   10 1
    18    9   16 1
    19    9   11 1
    20   11   12 1
    21   11   33 1
    22   11   34 1
    23   12   13 2
    24   12   14 am
    25   14   15 1
    26   14   35 1
    27   15   19 1
    28   15   16 2
    29   16   17 1
    30   17   18 1
    31   18   19 2
    32   19   20 1
    33   20   25 ar
    34   20   21 ar
    35   21   22 ar
    36   21   36 1
    37   22   23 ar
    38   22   37 1
    39   23   24 ar
    40   23   38 1
    41   24   25 ar
    42   24   39 1
    43   25   40 1
@<TRIPOS>MOLECULE
ZINC43560520
   33    36     0     0     0
SMALL
USER_CHARGES

@<TRIPOS>ATOM
      1 C1         -0.0166    1.3757    0.0096 C.ar      1 <0>        -0.1098
      2 C2          1.1703    2.0867    0.0021 C.ar      1 <0>        -0.0878
      3 C3          2.3815    1.4201   -0.0135 C.ar      1 <0>        -0.0968
      4 C4          2.4124    0.0389   -0.0211 C.ar      1 <0>        -0.0642
      5 C5          1.2193   -0.6819   -0.0132 C.ar      1 <0>        -0.0109
      6 C6          0.0021   -0.0041    0.0020 C.ar      1 <0>        -0.0588
      7 C7          1.2455   -2.1659   -0.0218 C.2       1 <0>         0.2796
      8 N1          0.1679   -2.9658   -0.0208 N.2       1 <0>        -0.4898
      9 C8          0.5444   -4.2238   -0.0300 C.2       1 <0>         0.3368
     10 O1          1.8886   -4.2604   -0.0372 O.3       1 <0>        -0.1067
     11 N2          2.3251   -2.9096   -0.0374 N.2       1 <0>        -0.2979
     12 C9         -0.3537   -5.3964   -0.0316 C.2       1 <0>        -0.0465
     13 C10         0.1532   -6.6163   -0.0363 C.2       1 <0>        -0.0149
     14 C11         1.4477   -7.3868   -0.2931 C.3       1 <0>        -0.0749
     15 C12         1.0260   -8.6522   -1.0734 C.3       1 <0>        -0.1206
     16 C13        -0.5257   -8.6288   -1.1130 C.3       1 <0>        -0.1064
     17 C14        -0.8623   -7.7549    0.1063 C.3       1 <0>        -0.0505
     18 H1         -0.7749   -8.2938    1.0497 H         1 <0>         0.1490
     19 S1         -2.4514   -6.8768   -0.0814 S.3       1 <0>        -0.2104
     20 C15        -1.8222   -5.2041   -0.0218 C.2       1 <0>         0.2822
     21 N3         -2.4931   -4.0865    0.0182 N.2       1 <0>        -0.5786
     22 Br1         4.0695   -0.8718   -0.0430 Br        1 <0>        -0.0083
     23 H2         -0.9597    1.9018    0.0259 H         1 <0>         0.1405
     24 H3          1.1506    3.1665    0.0080 H         1 <0>         0.1401
     25 H4          3.3050    1.9800   -0.0200 H         1 <0>         0.1422
     26 H5         -0.9252   -0.5576    0.0079 H         1 <0>         0.1507
     27 H6          2.1323   -6.7855   -0.8912 H         1 <0>         0.0954
     28 H7          1.9151   -7.6645    0.6516 H         1 <0>         0.1080
     29 H8          1.4284   -8.6210   -2.0860 H         1 <0>         0.0836
     30 H9          1.3754   -9.5462   -0.5569 H         1 <0>         0.0850
     31 H10        -0.8849   -8.1683   -2.0333 H         1 <0>         0.0893
     32 H11        -0.9334   -9.6330   -0.9968 H         1 <0>         0.0919
     33 H12        -3.4629   -4.1028    0.0197 H         1 <0>         0.3595
@<TRIPOS>BOND
     1    1    6 ar
     2    1    2 ar
     3    1   23 1
     4    2    3 ar
     5    2   24 1
     6    3    4 ar
     7    3   25 1
     8    4    5 ar
     9    4   22 1
    10    5    6 ar
    11    5    7 1
    12    6   26 1
    13    7   11 2
    14    7    8 1
    15    8    9 2
    16    9   10 1
    17    9   12 1
    18   10   11 1
    19   12   20 1
    20   12   13 2
    21   13   17 1
    22   13   14 1
    23   14   15 1
    24   14   27 1
    25   14   28 1
    26   15   16 1
    27   15   29 1
    28   15   30 1
    29   16   17 1
    30   16   31 1
    31   16   32 1
    32   17   18 1
    33   17   19 1
    34   19   20 1
    35   20   21 2
    36   21   33 1
@<TRIPOS>MOLECULE
ZINC62023248
   34    36     0     0     0
SMALL
USER_CHARGES

@<TRIPOS>ATOM
      1 C1         -0.0638    1.5019    0.0159 C.3       1 <0>        -0.1140
      2 C2         -0.0311   -0.0047    0.0059 C.ar      1 <0>        -0.0970
      3 C3         -0.6223   -0.7007   -1.0328 C.ar      1 <0>        -0.0813
      4 C4         -0.5947   -2.0814   -1.0452 C.ar      1 <0>        -0.1209
      5 C5          0.0280   -2.7715   -0.0133 C.ar      1 <0>         0.1725
      6 C6          0.6215   -2.0696    1.0287 C.ar      1 <0>        -0.1217
      7 C7          0.5947   -0.6878    1.0322 C.ar      1 <0>        -0.0698
      8 Br1         1.4708   -3.0036    2.4366 Br        1 <0>        -0.0451
      9 N1          0.0572   -4.1700   -0.0227 N.am      1 <0>        -0.6646
     10 C8         -0.0419   -4.8383   -1.1889 C.2       1 <0>         0.5688
     11 O1         -0.0553   -4.2277   -2.2402 O.2       1 <0>        -0.5046
     12 C9         -0.1341   -6.3123   -1.1898 C.ar      1 <0>        -0.1412
     13 C10        -0.1244   -7.0143    0.0221 C.ar      1 <0>        -0.0659
     14 C11        -0.2091   -8.3769    0.0336 C.ar      1 <0>        -0.0893
     15 C12        -0.3064   -9.0808   -1.1599 C.ar      1 <0>         0.0331
     16 C13        -0.3179   -8.3918   -2.3843 C.ar      1 <0>         0.0166
     17 C14        -0.2364   -7.0015   -2.3950 C.ar      1 <0>         0.0132
     18 N2         -0.4205   -9.3365   -3.3589 N.2       1 <0>        -0.4743
     19 C15        -0.4689  -10.5084   -2.8014 C.2       1 <0>         0.2568
     20 O2         -0.4021  -10.3927   -1.4656 O.3       1 <0>        -0.2093
     21 C16        -0.5842  -11.8126   -3.5477 C.3       1 <0>        -0.0678
     22 H1          0.8121    1.8879   -0.5055 H         1 <0>         0.0738
     23 H2         -0.9673    1.8491   -0.4854 H         1 <0>         0.0704
     24 H3         -0.0599    1.8586    1.0459 H         1 <0>         0.0690
     25 H4         -1.1064   -0.1637   -1.8351 H         1 <0>         0.1347
     26 H5         -1.0573   -2.6240   -1.8564 H         1 <0>         0.1556
     27 H6          1.0596   -0.1412    1.8394 H         1 <0>         0.1375
     28 H7          0.1487   -4.6588    0.8101 H         1 <0>         0.4129
     29 H8         -0.0489   -6.4740    0.9541 H         1 <0>         0.1428
     30 H9         -0.2000   -8.9090    0.9733 H         1 <0>         0.1465
     31 H10        -0.2483   -6.4627   -3.3309 H         1 <0>         0.1543
     32 H11         0.4126  -12.1913   -3.7737 H         1 <0>         0.1028
     33 H12        -1.1174  -12.5374   -2.9324 H         1 <0>         0.0965
     34 H13        -1.1313  -11.6524   -4.4767 H         1 <0>         0.1091
@<TRIPOS>BOND
     1    1    2 1
     2    1   22 1
     3    1   23 1
     4    1   24 1
     5    2    7 ar
     6    2    3 ar
     7    3    4 ar
     8    3   25 1
     9    4    5 ar
    10    4   26 1
    11    5    6 ar
    12    5    9 1
    13    6    7 ar
    14    6    8 1
    15    7   27 1
    16    9   10 am
    17    9   28 1
    18   10   11 2
    19   10   12 1
    20   12   17 ar
    21   12   13 ar
    22   13   14 ar
    23   13   29 1
    24   14   15 ar
    25   14   30 1
    26   15   20 1
    27   15   16 ar
    28   16   17 ar
    29   16   18 1
    30   17   31 1
    31   18   19 2
    32   19   20 1
    33   19   21 1
    34   21   32 1
    35   21   33 1
    36   21   34 1
@<TRIPOS>MOLECULE
ZINC00278014
   35    38     0     0     0
SMALL
USER_CHARGES
N-(1-naphthylmethyl)benzothiazol-2-amine
@<TRIPOS>ATOM
      1 C1          2.2865    5.2702    0.0076 C.ar      1 <0>        -0.1155
      2 C2          1.0643    5.9401    0.0230 C.ar      1 <0>        -0.1061
      3 C3         -0.1108    5.2538    0.0306 C.ar      1 <0>        -0.1134
      4 C4         -0.0954    3.8484    0.0237 C.ar      1 <0>        -0.0333
      5 C5          1.1475    3.1672    0.0081 C.ar      1 <0>        -0.0560
      6 C6          2.3404    3.9104    0.0001 C.ar      1 <0>        -0.1021
      7 C7          1.1629    1.7623    0.0004 C.ar      1 <0>        -0.0873
      8 C8         -0.0126    1.0758    0.0080 C.ar      1 <0>        -0.1228
      9 C9         -1.2344    1.7455    0.0174 C.ar      1 <0>        -0.0810
     10 C10        -1.2880    3.1056    0.0315 C.ar      1 <0>        -0.1068
     11 C11        -2.6196    3.8110    0.0475 C.3       1 <0>         0.1653
     12 N1         -2.9518    4.2579   -1.3075 N.pl3     1 <0>        -0.6677
     13 C12        -4.1325    4.9329   -1.5414 C.2       1 <0>         0.4190
     14 N2         -4.5999    5.4074   -2.6737 N.2       1 <0>        -0.5860
     15 C13        -5.7841    6.0530   -2.7559 C.ar      1 <0>         0.1291
     16 C14        -6.3980    6.6077   -3.9025 C.ar      1 <0>        -0.0873
     17 C15        -7.6134    7.2346   -3.8121 C.ar      1 <0>        -0.0984
     18 C16        -8.2821    7.3482   -2.6019 C.ar      1 <0>        -0.1196
     19 C17        -7.7103    6.8174   -1.4600 C.ar      1 <0>        -0.0535
     20 C18        -6.4938    6.1876   -1.5413 C.ar      1 <0>        -0.1648
     21 S1         -5.4185    5.3769   -0.3824 S.3       1 <0>        -0.0223
     22 H1          3.2046    5.8389    0.0011 H         1 <0>         0.1256
     23 H2          1.0496    7.0200    0.0286 H         1 <0>         0.1249
     24 H3         -1.0504    5.7863    0.0418 H         1 <0>         0.1265
     25 H4          3.2947    3.4051   -0.0122 H         1 <0>         0.1296
     26 H5          2.1024    1.2298   -0.0118 H         1 <0>         0.1310
     27 H6          0.0021   -0.0041    0.0020 H         1 <0>         0.1289
     28 H7         -2.1526    1.1769    0.0184 H         1 <0>         0.1283
     29 H8         -3.3894    3.1261    0.4031 H         1 <0>         0.0841
     30 H9         -2.5659    4.6736    0.7117 H         1 <0>         0.0835
     31 H10        -2.3418    4.0795   -2.0403 H         1 <0>         0.4198
     32 H11        -5.9038    6.5363   -4.8602 H         1 <0>         0.1297
     33 H12        -8.0606    7.6498   -4.7032 H         1 <0>         0.1318
     34 H13        -9.2393    7.8458   -2.5522 H         1 <0>         0.1361
     35 H14        -8.2181    6.8980   -0.5102 H         1 <0>         0.1305
@<TRIPOS>BOND
     1    1    6 ar
     2    1    2 ar
     3    1   22 1
     4    2    3 ar
     5    2   23 1
     6    3    4 ar
     7    3   24 1
     8    4   10 ar
     9    4    5 ar
    10    5    6 ar
    11    5    7 ar
    12    6   25 1
    13    7    8 ar
    14    7   26 1
    15    8    9 ar
    16    8   27 1
    17    9   10 ar
    18    9   28 1
    19   10   11 1
    20   11   12 1
    21   11   29 1
    22   11   30 1
    23   12   13 1
    24   12   31 1
    25   13   21 1
    26   13   14 2
    27   14   15 1
    28   15   20 ar
    29   15   16 ar
    30   16   17 ar
    31   16   32 1
    32   17   18 ar
    33   17   33 1
    34   18   19 ar
    35   18   34 1
    36   19   20 ar
    37   19   35 1
    38   20   21 1
@<TRIPOS>MOLECULE
ZINC20303627
   26    28     0     0     0
SMALL
USER_CHARGES
N-(2-chloro-4-fluoro-phenyl)-1,3-benzothiazol-2-amine
@<TRIPOS>ATOM
      1 C1         -0.9380    3.5631    0.4614 C.ar      1 <0>        -0.1009
      2 C2          0.2938    4.1485    0.2068 C.ar      1 <0>        -0.1101
      3 C3          1.3924    3.3409   -0.0246 C.ar      1 <0>        -0.0566
      4 C4          1.2477    1.9765    0.0011 C.ar      1 <0>        -0.1646
      5 C5          0.0093    1.3452    0.2569 C.ar      1 <0>         0.1170
      6 C6         -1.0906    2.2015    0.4945 C.ar      1 <0>        -0.0781
      7 N1          0.0280   -0.0055    0.2486 N.2       1 <0>        -0.5634
      8 C7          1.1227   -0.6945    0.0183 C.2       1 <0>         0.4031
      9 S1          2.3376    0.5925   -0.2304 S.3       1 <0>         0.0003
     10 N2          1.2917   -2.0644   -0.0210 N.pl3     1 <0>        -0.6205
     11 C8          2.5760   -2.6079   -0.1419 C.ar      1 <0>         0.1668
     12 C9          3.6603   -1.9667    0.4422 C.ar      1 <0>        -0.1193
     13 C10         4.9261   -2.5069    0.3254 C.ar      1 <0>        -0.1081
     14 C11         5.1164   -3.6821   -0.3821 C.ar      1 <0>         0.0980
     15 C12         4.0380   -4.3213   -0.9698 C.ar      1 <0>        -0.1136
     16 C13         2.7687   -3.7870   -0.8515 C.ar      1 <0>        -0.0382
     17 Cl1         1.4167   -4.5879   -1.5893 Cl        1 <0>        -0.0399
     18 F1          6.3564   -4.2054   -0.4996 F         1 <0>        -0.1271
     19 H1         -1.7952    4.1948    0.6420 H         1 <0>         0.1340
     20 H2          0.3936    5.2237    0.1892 H         1 <0>         0.1382
     21 H3          2.3582    3.7813   -0.2239 H         1 <0>         0.1327
     22 H4         -2.0624    1.7779    0.7006 H         1 <0>         0.1320
     23 H5          0.4171   -2.7285    0.0427 H         1 <0>         0.4584
     24 H6          3.5135   -1.0480    0.9907 H         1 <0>         0.1514
     25 H7          5.7690   -2.0102    0.7829 H         1 <0>         0.1525
     26 H8          4.1886   -5.2377   -1.5211 H         1 <0>         0.1560
@<TRIPOS>BOND
     1    1    6 ar
     2    1    2 ar
     3    1   19 1
     4    2    3 ar
     5    2   20 1
     6    3    4 ar
     7    3   21 1
     8    4    9 1
     9    4    5 ar
    10    5    6 ar
    11    5    7 1
    12    6   22 1
    13    7    8 2
    14    8    9 1
    15    8   10 1
    16   10   11 1
    17   10   23 1
    18   11   16 ar
    19   11   12 ar
    20   12   13 ar
    21   12   24 1
    22   13   14 ar
    23   13   25 1
    24   14   15 ar
    25   14   18 1
    26   15   16 ar
    27   15   26 1
    28   16   17 1
@<TRIPOS>MOLECULE
ZINC37206864
   26    28     0     0     0
SMALL
USER_CHARGES

@<TRIPOS>ATOM
      1 C1          0.0710    1.4252    0.8093 C.ar      1 <0>        -0.1156
      2 C2          1.2429    2.1172    0.5716 C.ar      1 <0>        -0.1133
      3 C3          2.3958    1.4284    0.2204 C.ar      1 <0>         0.1618
      4 C4          2.3682    0.0431    0.1087 C.ar      1 <0>        -0.0489
      5 C5          1.1937   -0.6446    0.3473 C.ar      1 <0>        -0.1169
      6 C6          0.0452    0.0456    0.6976 C.ar      1 <0>         0.0917
      7 F1         -1.1021   -0.6287    0.9310 F         1 <0>        -0.1304
      8 Cl1         3.8077   -0.8220   -0.3309 Cl        1 <0>        -0.0487
      9 N1          3.5841    2.1276   -0.0212 N.pl3     1 <0>        -0.5971
     10 C7          3.5672    3.5050   -0.1183 C.2       1 <0>         0.4006
     11 N2          2.5356    4.3187   -0.1162 N.2       1 <0>        -0.5644
     12 C8          2.6689    5.6591   -0.2194 C.ar      1 <0>         0.1470
     13 C9          1.6491    6.6388   -0.2302 C.ar      1 <0>        -0.1199
     14 C10         1.9583    7.9710   -0.3440 C.ar      1 <0>         0.1262
     15 C11         3.2743    8.4028   -0.4519 C.ar      1 <0>        -0.1443
     16 C12         4.2954    7.4701   -0.4441 C.ar      1 <0>        -0.0224
     17 C13         3.9944    6.1361   -0.3306 C.ar      1 <0>        -0.1742
     18 S1          4.9433    4.6350   -0.2711 S.3       1 <0>         0.0314
     19 F2          0.9611    8.8825   -0.3517 F         1 <0>        -0.1310
     20 H1         -0.8249    1.9608    1.0869 H         1 <0>         0.1486
     21 H2          1.2620    3.1936    0.6587 H         1 <0>         0.1866
     22 H3          1.1714   -1.7209    0.2607 H         1 <0>         0.1535
     23 H4          4.4194    1.6447   -0.1205 H         1 <0>         0.4350
     24 H5          0.6159    6.3353   -0.1484 H         1 <0>         0.1467
     25 H6          3.4977    9.4557   -0.5414 H         1 <0>         0.1525
     26 H7          5.3236    7.7897   -0.5272 H         1 <0>         0.1454
@<TRIPOS>BOND
     1    1    6 ar
     2    1    2 ar
     3    1   20 1
     4    2    3 ar
     5    2   21 1
     6    3    4 ar
     7    3    9 1
     8    4    5 ar
     9    4    8 1
    10    5    6 ar
    11    5   22 1
    12    6    7 1
    13    9   10 1
    14    9   23 1
    15   10   18 1
    16   10   11 2
    17   11   12 1
    18   12   17 ar
    19   12   13 ar
    20   13   14 ar
    21   13   24 1
    22   14   15 ar
    23   14   19 1
    24   15   16 ar
    25   15   25 1
    26   16   17 ar
    27   16   26 1
    28   17   18 1
@<TRIPOS>MOLECULE
ZINC40271540
   39    41     0     0     0
SMALL
USER_CHARGES

@<TRIPOS>ATOM
      1 C1          0.0500    1.3126    0.1929 C.3       1 <0>        -0.1452
      2 C2          0.1298   -0.2147    0.1486 C.3       1 <0>        -0.0600
      3 C3         -1.2822   -0.8010    0.2052 C.3       1 <0>        -0.1453
      4 C4          0.8019   -0.6457   -1.1295 C.ar      1 <0>        -0.0652
      5 C5          0.2525   -0.2999   -2.3499 C.ar      1 <0>        -0.1136
      6 C6          0.8690   -0.6953   -3.5223 C.ar      1 <0>        -0.0983
      7 C7          2.0350   -1.4362   -3.4743 C.ar      1 <0>        -0.1007
      8 C8          2.5849   -1.7813   -2.2538 C.ar      1 <0>        -0.0937
      9 C9          1.9707   -1.3822   -1.0815 C.ar      1 <0>        -0.1170
     10 C10         2.7066   -1.8681   -4.7524 C.3       1 <0>         0.0885
     11 H1          2.0704   -1.6151   -5.6005 H         1 <0>         0.1150
     12 C11         4.0301   -1.1604   -4.8885 C.ar      1 <0>        -0.1144
     13 C12         5.0606   -1.4423   -4.0102 C.ar      1 <0>        -0.0607
     14 C13         6.2744   -0.7981   -4.1293 C.ar      1 <0>        -0.1348
     15 C14         6.4710    0.1430   -5.1382 C.ar      1 <0>         0.1512
     16 C15         5.4285    0.4170   -6.0143 C.ar      1 <0>        -0.1418
     17 C16         4.2194   -0.2309   -5.8962 C.ar      1 <0>        -0.0467
     18 C17         5.9450    1.4618   -6.9765 C.3       1 <0>        -0.1149
     19 C18         7.3665    1.7120   -6.5197 C.2       1 <0>         0.5285
     20 O1          8.1573    2.4858   -7.0166 O.2       1 <0>        -0.4991
     21 N1          7.5875    0.9154   -5.4604 N.am      1 <0>        -0.6606
     22 Cl1         2.9788   -3.6501   -4.7158 Cl        1 <0>        -0.1608
     23 H2          1.0560    1.7303    0.1525 H         1 <0>         0.0560
     24 H3         -0.5268    1.6711   -0.6597 H         1 <0>         0.0571
     25 H4         -0.4361    1.6244    1.1173 H         1 <0>         0.0595
     26 H5          0.7066   -0.5732    1.0012 H         1 <0>         0.0784
     27 H6         -1.8590   -0.4425   -0.6474 H         1 <0>         0.0572
     28 H7         -1.2253   -1.8891    0.1737 H         1 <0>         0.0567
     29 H8         -1.7683   -0.4892    1.1297 H         1 <0>         0.0595
     30 H9         -0.6585    0.2789   -2.3875 H         1 <0>         0.1246
     31 H10         0.4394   -0.4257   -4.4758 H         1 <0>         0.1246
     32 H11         3.4957   -2.3604   -2.2163 H         1 <0>         0.1252
     33 H12         2.4023   -1.6486   -0.1280 H         1 <0>         0.1240
     34 H13         4.9139   -2.1707   -3.2264 H         1 <0>         0.1351
     35 H14         7.0740   -1.0232   -3.4390 H         1 <0>         0.1313
     36 H15         3.4185   -0.0111   -6.5865 H         1 <0>         0.1335
     37 H16         5.9336    1.0798   -7.9973 H         1 <0>         0.1262
     38 H17         5.3538    2.3746   -6.9026 H         1 <0>         0.1258
     39 H18         8.4268    0.8811   -4.9754 H         1 <0>         0.4150
@<TRIPOS>BOND
     1    1    2 1
     2    1   23 1
     3    1   24 1
     4    1   25 1
     5    2    3 1
     6    2    4 1
     7    2   26 1
     8    3   27 1
     9    3   28 1
    10    3   29 1
    11    4    9 ar
    12    4    5 ar
    13    5    6 ar
    14    5   30 1
    15    6    7 ar
    16    6   31 1
    17    7    8 ar
    18    7   10 1
    19    8    9 ar
    20    8   32 1
    21    9   33 1
    22   10   11 1
    23   10   12 1
    24   10   22 1
    25   12   17 ar
    26   12   13 ar
    27   13   14 ar
    28   13   34 1
    29   14   15 ar
    30   14   35 1
    31   15   21 1
    32   15   16 ar
    33   16   17 ar
    34   16   18 1
    35   17   36 1
    36   18   19 1
    37   18   37 1
    38   18   38 1
    39   19   20 2
    40   19   21 am
    41   21   39 1
@<TRIPOS>MOLECULE
ZINC20432962
   41    43     0     0     0
SMALL
USER_CHARGES

@<TRIPOS>ATOM
      1 C1         -0.0187    1.5258    0.0104 C.3       1 <0>        -0.1490
      2 C2          0.0021   -0.0041    0.0020 C.3       1 <0>        -0.0620
      3 C3          0.7421   -0.5109    1.2415 C.3       1 <0>        -0.1461
      4 C4         -1.4333   -0.5336    0.0129 C.3       1 <0>        -0.1452
      5 C5          0.7182   -0.4975   -1.2568 C.3       1 <0>        -0.0695
      6 H1          0.7342   -1.5873   -1.2650 H         1 <0>         0.0780
      7 C6         -0.0153    0.0150   -2.4995 C.3       1 <0>        -0.1203
      8 C7          0.5334   -0.6675   -3.7530 C.3       1 <0>        -0.0410
      9 C8          2.0499   -0.4974   -3.7823 C.2       1 <0>         0.0600
     10 C9          2.7201   -0.1776   -2.6396 C.2       1 <0>        -0.1703
     11 S1          4.4063   -0.0946   -3.1847 S.3       1 <0>         0.0071
     12 C10         4.0865   -0.4952   -4.8993 C.2       1 <0>         0.1565
     13 N1          2.7723   -0.6464   -4.8855 N.2       1 <0>        -0.4981
     14 C11         5.0344   -0.6224   -6.0264 C.ar      1 <0>        -0.0243
     15 C12         6.4003   -0.4236   -5.8178 C.ar      1 <0>        -0.0755
     16 C13         7.2812   -0.5435   -6.8712 C.ar      1 <0>        -0.1429
     17 C14         6.8113   -0.8612   -8.1389 C.ar      1 <0>         0.1256
     18 C15         5.4532   -1.0593   -8.3505 C.ar      1 <0>        -0.1455
     19 C16         4.5667   -0.9473   -7.3009 C.ar      1 <0>        -0.0540
     20 O1          7.6825   -0.9781   -9.1747 O.3       1 <0>        -0.4975
     21 C17         2.1582    0.0396   -1.2750 C.3       1 <0>        -0.0352
     22 H2          1.0039    1.9031    0.0027 H         1 <0>         0.0573
     23 H3         -0.5459    1.8868   -0.8726 H         1 <0>         0.0590
     24 H4         -0.5289    1.8773    0.9072 H         1 <0>         0.0562
     25 H5          0.2319   -0.1594    2.1383 H         1 <0>         0.0569
     26 H6          0.7568   -1.6008    1.2356 H         1 <0>         0.0557
     27 H7          1.7647   -0.1336    1.2338 H         1 <0>         0.0564
     28 H8         -1.9605   -0.1726   -0.8702 H         1 <0>         0.0599
     29 H9         -1.4185   -1.6235    0.0069 H         1 <0>         0.0557
     30 H10        -1.9435   -0.1821    0.9097 H         1 <0>         0.0565
     31 H11        -1.0794   -0.2021   -2.4063 H         1 <0>         0.0811
     32 H12         0.1257    1.0926   -2.5836 H         1 <0>         0.0695
     33 H13         0.2852   -1.7286   -3.7295 H         1 <0>         0.0810
     34 H14         0.0970   -0.2078   -4.6398 H         1 <0>         0.0830
     35 H15         6.7664   -0.1758   -4.8324 H         1 <0>         0.1314
     36 H16         8.3380   -0.3899   -6.7106 H         1 <0>         0.1383
     37 H17         5.0915   -1.3059   -9.3378 H         1 <0>         0.1382
     38 H18         3.5112   -1.1062   -7.4653 H         1 <0>         0.1406
     39 H19         8.0325   -1.8714   -9.2954 H         1 <0>         0.3958
     40 H20         2.1558    1.1053   -1.0460 H         1 <0>         0.0916
     41 H21         2.7587   -0.4937   -0.5380 H         1 <0>         0.0848
@<TRIPOS>BOND
     1    1    2 1
     2    1   22 1
     3    1   23 1
     4    1   24 1
     5    2    3 1
     6    2    4 1
     7    2    5 1
     8    3   25 1
     9    3   26 1
    10    3   27 1
    11    4   28 1
    12    4   29 1
    13    4   30 1
    14    5    6 1
    15    5   21 1
    16    5    7 1
    17    7    8 1
    18    7   31 1
    19    7   32 1
    20    8    9 1
    21    8   33 1
    22    8   34 1
    23    9   13 1
    24    9   10 2
    25   10   11 1
    26   10   21 1
    27   11   12 1
    28   12   13 2
    29   12   14 1
    30   14   19 ar
    31   14   15 ar
    32   15   16 ar
    33   15   35 1
    34   16   17 ar
    35   16   36 1
    36   17   18 ar
    37   17   20 1
    38   18   19 ar
    39   18   37 1
    40   19   38 1
    41   20   39 1
    42   21   40 1
    43   21   41 1
@<TRIPOS>MOLECULE
ZINC00640458
   25    25     0     0     0
SMALL
USER_CHARGES
2-[(3,5-dibromo-2-ethoxy-phenyl)methylene]propanedinitrile
@<TRIPOS>ATOM
      1 C1         -0.2404    1.7783   -0.9350 C.3       1 <0>        -0.1524
      2 C2          0.2912    1.2452    0.3969 C.3       1 <0>         0.0592
      3 O1         -0.5943    1.6284    1.4510 O.3       1 <0>        -0.3222
      4 C3         -0.2656    1.2322    2.7063 C.ar      1 <0>         0.1819
      5 C4         -0.7316    0.0022    3.2040 C.ar      1 <0>        -0.1090
      6 C5         -0.3809   -0.3960    4.5011 C.ar      1 <0>        -0.0369
      7 C6          0.4079    0.4220    5.2802 C.ar      1 <0>        -0.0965
      8 C7          0.8606    1.6359    4.7859 C.ar      1 <0>        -0.0240
      9 C8          0.5266    2.0403    3.5069 C.ar      1 <0>        -0.1162
     10 Br1         1.1521    3.6988    2.8480 Br        1 <0>        -0.0079
     11 Br2         0.8750   -0.1132    7.0327 Br        1 <0>        -0.0157
     12 C9         -1.5738   -0.8587    2.3708 C.2       1 <0>         0.0625
     13 C10        -1.4934   -2.2280    2.4941 C.2       1 <0>         0.0110
     14 C11        -0.4876   -2.8139    3.3282 C.1       1 <0>         0.2414
     15 N1          0.3103   -3.2788    3.9898 N.1       1 <0>        -0.3736
     16 C12        -2.4157   -3.0658    1.7883 C.1       1 <0>         0.2523
     17 N2         -3.1473   -3.7305    1.2284 N.1       1 <0>        -0.3769
     18 H1         -0.3046    2.8656   -0.8916 H         1 <0>         0.0701
     19 H2          0.4351    1.4860   -1.7390 H         1 <0>         0.0813
     20 H3         -1.2305    1.3632   -1.1233 H         1 <0>         0.0688
     21 H4          0.3554    0.1580    0.3535 H         1 <0>         0.0614
     22 H5          1.2813    1.6604    0.5853 H         1 <0>         0.0633
     23 H6         -0.7311   -1.3405    4.8904 H         1 <0>         0.1497
     24 H7          1.4781    2.2701    5.4047 H         1 <0>         0.1551
     25 H8         -2.2580   -0.4198    1.6597 H         1 <0>         0.1735
@<TRIPOS>BOND
     1    1    2 1
     2    1   18 1
     3    1   19 1
     4    1   20 1
     5    2    3 1
     6    2   21 1
     7    2   22 1
     8    3    4 1
     9    4    9 ar
    10    4    5 ar
    11    5    6 ar
    12    5   12 1
    13    6    7 ar
    14    6   23 1
    15    7    8 ar
    16    7   11 1
    17    8    9 ar
    18    8   24 1
    19    9   10 1
    20   12   13 2
    21   12   25 1
    22   13   14 1
    23   13   16 1
    24   14   15 3
    25   16   17 3
@<TRIPOS>MOLECULE
ZINC08296477
   21    22     0     0     0
SMALL
USER_CHARGES
3,5-dibromo-1-[(2-chlorophenyl)methyl]-1,2,4-triazole
@<TRIPOS>ATOM
      1 C1         -0.6357    2.8225    3.4767 C.ar      1 <0>        -0.1161
      2 C2         -2.0174    2.8386    3.5254 C.ar      1 <0>        -0.0888
      3 C3         -2.7525    2.4090    2.4370 C.ar      1 <0>        -0.1136
      4 C4         -2.1056    1.9676    1.2962 C.ar      1 <0>        -0.0114
      5 C5         -0.7232    1.9468    1.2500 C.ar      1 <0>        -0.1232
      6 C6          0.0111    2.3772    2.3392 C.ar      1 <0>        -0.0832
      7 C7         -0.0178    1.4608    0.0101 C.3       1 <0>         0.1596
      8 N1          0.0021   -0.0041    0.0020 N.pl3     1 <0>        -0.3387
      9 C8          0.9531   -0.8000    0.5223 C.2       1 <0>         0.2712
     10 N2          0.6010   -2.0437    0.3128 N.2       1 <0>        -0.4801
     11 C9         -0.5591   -2.0803   -0.3430 C.2       1 <0>         0.2170
     12 N3         -0.9652   -0.8558   -0.5559 N.2       1 <0>        -0.2373
     13 Br1        -1.4701   -3.6487   -0.8778 Br        1 <0>         0.0989
     14 Br2         2.5224   -0.2238    1.4062 Br        1 <0>         0.0999
     15 Cl1        -3.0283    1.4344   -0.0742 Cl        1 <0>        -0.0446
     16 H1         -0.0616    3.1584    4.3276 H         1 <0>         0.1361
     17 H2         -2.5222    3.1873    4.4142 H         1 <0>         0.1375
     18 H3         -3.8318    2.4212    2.4753 H         1 <0>         0.1387
     19 H4          1.0904    2.3652    2.3016 H         1 <0>         0.1352
     20 H5          1.0048    1.8381    0.0023 H         1 <0>         0.1192
     21 H6         -0.5450    1.8219   -0.8730 H         1 <0>         0.1237
@<TRIPOS>BOND
     1    1    6 ar
     2    1    2 ar
     3    1   16 1
     4    2    3 ar
     5    2   17 1
     6    3    4 ar
     7    3   18 1
     8    4    5 ar
     9    4   15 1
    10    5    6 ar
    11    5    7 1
    12    6   19 1
    13    7    8 1
    14    7   20 1
    15    7   21 1
    16    8   12 1
    17    8    9 1
    18    9   10 2
    19    9   14 1
    20   10   11 1
    21   11   12 2
    22   11   13 1
@<TRIPOS>MOLECULE
ZINC36532868
   17    17     0     0     0
SMALL
USER_CHARGES

@<TRIPOS>ATOM
      1 C1         -0.0184    1.5028    0.0103 C.3       1 <0>        -0.1398
      2 C2          0.0021   -0.0041    0.0020 C.ar      1 <0>         0.0073
      3 C3          0.0058   -0.6886   -1.1989 C.ar      1 <0>        -0.0899
      4 C4          0.0250   -2.0715   -1.2064 C.ar      1 <0>        -0.0265
      5 C5          0.0405   -2.7695   -0.0120 C.ar      1 <0>        -0.0372
      6 C6          0.0368   -2.0849    1.1883 C.ar      1 <0>        -0.0086
      7 C7          0.0229   -0.7018    1.1957 C.ar      1 <0>        -0.1101
      8 I1          0.0260    0.3360    3.0156 I         1 <0>         0.0136
      9 N1          0.0606   -4.2495   -0.0199 N.pl3     1 <0>         0.0287
     10 O1          0.0741   -4.8594    1.0239 O.2       1 <0>        -0.1553
     11 O2          0.0634   -4.8484   -1.0701 O.3       1 <0>        -0.1228
     12 Br1         0.0295   -3.0082   -2.8492 Br        1 <0>         0.0327
     13 H1          1.0042    1.8801    0.0026 H         1 <0>         0.0975
     14 H2         -0.5455    1.8639   -0.8728 H         1 <0>         0.0900
     15 H3         -0.5286    1.8543    0.9071 H         1 <0>         0.0878
     16 H4         -0.0067   -0.1436   -2.1312 H         1 <0>         0.1654
     17 H5          0.0489   -2.6297    2.1207 H         1 <0>         0.1671
@<TRIPOS>BOND
     1    1    2 1
     2    1   13 1
     3    1   14 1
     4    1   15 1
     5    2    7 ar
     6    2    3 ar
     7    3    4 ar
     8    3   16 1
     9    4    5 ar
    10    4   12 1
    11    5    6 ar
    12    5    9 1
    13    6    7 ar
    14    6   17 1
    15    7    8 1
    16    9   10 2
    17    9   11 1
@<TRIPOS>MOLECULE
ZINC49065170
   27    29     0     0     0
SMALL
USER_CHARGES

@<TRIPOS>ATOM
      1 C1          1.2287   -0.6804   -0.0018 C.ar      1 <0>        -0.0418
      2 C2          2.4061    0.0347   -0.0143 C.ar      1 <0>        -0.1600
      3 C3          2.3795    1.4212   -0.0268 C.ar      1 <0>         0.1530
      4 C4          1.1680    2.0992   -0.0274 C.ar      1 <0>        -0.1469
      5 C5         -0.0177    1.3976   -0.0154 C.ar      1 <0>        -0.0258
      6 C6          0.0018   -0.0037   -0.0023 C.ar      1 <0>        -0.1035
      7 C7         -1.2554   -0.7579    0.0105 C.2       1 <0>         0.0699
      8 C8         -1.2362   -2.1305   -0.1011 C.2       1 <0>        -0.0863
      9 C9         -2.3965   -3.0338   -0.2188 C.2       1 <0>         0.4856
     10 O1         -3.5732   -2.7257   -0.2383 O.2       1 <0>        -0.4135
     11 O2         -1.8729   -4.2760   -0.3011 O.3       1 <0>        -0.2868
     12 C10        -0.5303   -4.1838   -0.2431 C.2       1 <0>         0.3776
     13 N1         -0.1390   -2.9425   -0.1320 N.2       1 <0>        -0.4905
     14 C11         0.3829   -5.3384   -0.3031 C.2       1 <0>        -0.1101
     15 C12        -0.1127   -6.6862   -0.4380 C.2       1 <0>        -0.1200
     16 C13         0.8263   -7.6537   -0.4816 C.2       1 <0>        -0.2045
     17 S1          2.3492   -6.7434   -0.3416 S.3       1 <0>         0.2182
     18 C14         1.7481   -5.1803   -0.2389 C.2       1 <0>        -0.1746
     19 Br1         1.1452    3.9900   -0.0439 Br        1 <0>        -0.0195
     20 F1          3.5384    2.1156   -0.0381 F         1 <0>        -0.1179
     21 H1          1.2513   -1.7601    0.0038 H         1 <0>         0.1873
     22 H2          3.3524   -0.4858   -0.0139 H         1 <0>         0.1507
     23 H3         -0.9596    1.9260   -0.0155 H         1 <0>         0.1507
     24 H4         -2.1965   -0.2371    0.1073 H         1 <0>         0.1604
     25 H5         -1.1681   -6.9068   -0.4998 H         1 <0>         0.1532
     26 H6          0.6878   -8.7204   -0.5776 H         1 <0>         0.1955
     27 H7          2.3055   -4.2603   -0.1424 H         1 <0>         0.1995
@<TRIPOS>BOND
     1    1    6 ar
     2    1    2 ar
     3    1   21 1
     4    2    3 ar
     5    2   22 1
     6    3    4 ar
     7    3   20 1
     8    4    5 ar
     9    4   19 1
    10    5    6 ar
    11    5   23 1
    12    6    7 1
    13    7    8 2
    14    7   24 1
    15    8   13 1
    16    8    9 1
    17    9   10 2
    18    9   11 1
    19   11   12 1
    20   12   13 2
    21   12   14 1
    22   14   18 2
    23   14   15 1
    24   15   16 2
    25   15   25 1
    26   16   17 1
    27   16   26 1
    28   17   18 1
    29   18   27 1
@<TRIPOS>MOLECULE
ZINC49534475
   33    35     0     0     0
SMALL
USER_CHARGES

@<TRIPOS>ATOM
      1 C1         -0.0184    1.5028    0.0103 C.3       1 <0>        -0.0816
      2 C2          0.0021   -0.0041    0.0020 C.2       1 <0>         0.0607
      3 C3          0.0059   -0.7076   -1.1591 C.2       1 <0>        -0.2130
      4 S1          0.0324   -2.3789   -0.5312 S.3       1 <0>         0.1287
      5 C4          0.0357   -2.0088    1.1107 C.2       1 <0>         0.0035
      6 N1          0.0226   -0.6992    1.1217 N.2       1 <0>        -0.4862
      7 C5          0.0549   -2.9548    2.2837 C.3       1 <0>         0.2023
      8 N2         -1.3200   -3.2810    2.6705 N.pl3     1 <0>        -0.4812
      9 C6         -2.0992   -2.5939    3.5806 C.ar      1 <0>         0.0740
     10 C7         -1.8951   -1.4732    4.3738 C.ar      1 <0>        -0.0939
     11 C8         -2.9024   -1.0260    5.2013 C.ar      1 <0>        -0.0723
     12 C9         -4.1218   -1.6892    5.2474 C.ar      1 <0>        -0.0976
     13 C10        -4.3418   -2.8022    4.4678 C.ar      1 <0>        -0.0272
     14 C11        -3.3307   -3.2686    3.6233 C.ar      1 <0>         0.0505
     15 N3         -3.2418   -4.3099    2.7562 N.2       1 <0>        -0.4503
     16 C12        -2.0677   -4.3132    2.1955 C.2       1 <0>         0.2719
     17 C13        -1.6027   -5.3169    1.1721 C.3       1 <0>         0.0684
     18 H1         -0.7024   -4.9457    0.6822 H         1 <0>         0.1096
     19 C14        -1.2954   -6.6462    1.8644 C.3       1 <0>        -0.1543
     20 Cl1        -2.8973   -5.5649   -0.0580 Cl        1 <0>        -0.1250
     21 Br1        -5.4900   -1.0588    6.3904 Br        1 <0>        -0.0391
     22 H2          1.0042    1.8801    0.0026 H         1 <0>         0.0778
     23 H3         -0.5455    1.8639   -0.8728 H         1 <0>         0.0773
     24 H4         -0.5286    1.8543    0.9071 H         1 <0>         0.0766
     25 H5         -0.0043   -0.3543   -2.1797 H         1 <0>         0.2014
     26 H6          0.5804   -3.8682    2.0052 H         1 <0>         0.1218
     27 H7          0.5661   -2.4828    3.1227 H         1 <0>         0.1290
     28 H8         -0.9491   -0.9531    4.3429 H         1 <0>         0.1355
     29 H9         -2.7424   -0.1542    5.8182 H         1 <0>         0.1426
     30 H10        -5.2925   -3.3131    4.5086 H         1 <0>         0.1429
     31 H11        -2.1957   -7.0174    2.3542 H         1 <0>         0.0847
     32 H12        -0.9591   -7.3722    1.1241 H         1 <0>         0.0860
     33 H13        -0.5127   -6.4963    2.6080 H         1 <0>         0.0765
@<TRIPOS>BOND
     1    1    2 1
     2    1   22 1
     3    1   23 1
     4    1   24 1
     5    2    6 1
     6    2    3 2
     7    3    4 1
     8    3   25 1
     9    4    5 1
    10    5    6 2
    11    5    7 1
    12    7    8 1
    13    7   26 1
    14    7   27 1
    15    8   16 1
    16    8    9 1
    17    9   14 ar
    18    9   10 ar
    19   10   11 ar
    20   10   28 1
    21   11   12 ar
    22   11   29 1
    23   12   13 ar
    24   12   21 1
    25   13   14 ar
    26   13   30 1
    27   14   15 1
    28   15   16 2
    29   16   17 1
    30   17   18 1
    31   17   19 1
    32   17   20 1
    33   19   31 1
    34   19   32 1
    35   19   33 1
@<TRIPOS>MOLECULE
ZINC09813418
   35    37     0     0     0
SMALL
USER_CHARGES
3-bromo-8-[[4-chloro-3-(trifluoromethyl)phenyl]aminomethyl]-1,7-diazabicyclo[4.4.0]deca-2,4,6,8-tetraen-10-one
@<TRIPOS>ATOM
      1 C1          1.1693    2.0875    0.0021 C.ar      1 <0>        -0.1570
      2 C2         -0.0167    1.3794    0.0096 C.ar      1 <0>        -0.0575
      3 C3          0.0021   -0.0041    0.0020 C.ar      1 <0>        -0.0526
      4 C4          1.2084   -0.6823   -0.0132 C.ar      1 <0>        -0.1250
      5 C5          2.3971    0.0205   -0.0208 C.ar      1 <0>        -0.1369
      6 C6          2.3812    1.4096   -0.0132 C.ar      1 <0>         0.2249
      7 N1          3.5825    2.1234   -0.0209 N.pl3     1 <0>        -0.7315
      8 C7          3.5643    3.5882   -0.0128 C.3       1 <0>         0.1751
      9 C8          4.9786    4.1083   -0.0236 C.2       1 <0>         0.1915
     10 C9          5.4432    4.8221   -1.1112 C.2       1 <0>        -0.3032
     11 C10         6.7592    5.2985   -1.0962 C.2       1 <0>         0.5106
     12 O1          7.1988    5.9354   -2.0405 O.2       1 <0>        -0.5156
     13 N2          7.5368    5.0375   -0.0236 N.am      1 <0>        -0.4268
     14 C11         8.8213    5.4896    0.0034 C.2       1 <0>         0.1387
     15 C12         9.6194    5.2407    1.0669 C.2       1 <0>        -0.1455
     16 C13         9.1295    4.5100    2.1594 C.2       1 <0>        -0.0142
     17 C14         7.8458    4.0533    2.1411 C.2       1 <0>        -0.1217
     18 C15         7.0313    4.3225    1.0260 C.2       1 <0>         0.3976
     19 N3          5.7765    3.8762    1.0068 N.2       1 <0>        -0.5276
     20 Br1        11.3996    5.8785    1.0805 Br        1 <0>         0.0073
     21 C16         1.2248   -2.1892   -0.0209 C.3       1 <0>         0.5083
     22 F1          2.5487   -2.6411   -0.0362 F         1 <0>        -0.1757
     23 F2          0.5816   -2.6684    1.1253 F         1 <0>        -0.1687
     24 F3          0.5593   -2.6569   -1.1591 F         1 <0>        -0.1688
     25 Cl1        -1.4903   -0.8908    0.0110 Cl        1 <0>        -0.0517
     26 H1          1.1540    3.1674    0.0077 H         1 <0>         0.1410
     27 H2         -0.9595    1.9061    0.0170 H         1 <0>         0.1463
     28 H3          3.3381   -0.5092   -0.0323 H         1 <0>         0.1453
     29 H4          4.4285    1.6490   -0.0315 H         1 <0>         0.4081
     30 H5          3.0374    3.9499   -0.8959 H         1 <0>         0.0904
     31 H6          3.0545    3.9403    0.8840 H         1 <0>         0.0921
     32 H7          4.8004    5.0122   -1.9580 H         1 <0>         0.1656
     33 H8          9.2068    6.0533   -0.8332 H         1 <0>         0.1927
     34 H9          9.7652    4.3111    3.0094 H         1 <0>         0.1655
     35 H10         7.4567    3.4893    2.9760 H         1 <0>         0.1787
@<TRIPOS>BOND
     1    1    6 ar
     2    1    2 ar
     3    1   26 1
     4    2    3 ar
     5    2   27 1
     6    3    4 ar
     7    3   25 1
     8    4    5 ar
     9    4   21 1
    10    5    6 ar
    11    5   28 1
    12    6    7 1
    13    7    8 1
    14    7   29 1
    15    8    9 1
    16    8   30 1
    17    8   31 1
    18    9   19 1
    19    9   10 2
    20   10   11 1
    21   10   32 1
    22   11   12 2
    23   11   13 am
    24   13   18 1
    25   13   14 1
    26   14   15 2
    27   14   33 1
    28   15   16 1
    29   15   20 1
    30   16   17 2
    31   16   34 1
    32   17   18 1
    33   17   35 1
    34   18   19 2
    35   21   22 1
    36   21   23 1
    37   21   24 1
@<TRIPOS>MOLECULE
ZINC15772557
   32    34     0     0     0
SMALL
USER_CHARGES
(1R)-1-[2-(5-bromo-2-furyl)-7-methyl-imidazo[3,2-a]pyridin-3-yl]-2,2,2-trichloro-ethanol
@<TRIPOS>ATOM
      1 C1          1.7310    0.1538    0.3103 C.3       1 <0>        -0.1159
      2 C2          0.5602    1.0948    0.1880 C.2       1 <0>        -0.0535
      3 C3          0.7721    2.4826    0.1446 C.2       1 <0>        -0.1214
      4 C4         -0.2743    3.3281    0.0360 C.2       1 <0>         0.0466
      5 N1         -1.5510    2.8495   -0.0336 N.pl3     1 <0>        -0.3431
      6 C5         -1.7892    1.4994    0.0005 C.2       1 <0>         0.2603
      7 C6         -0.7066    0.6039    0.1196 C.2       1 <0>        -0.0840
      8 N2         -3.0974    1.3047   -0.0772 N.2       1 <0>        -0.4628
      9 C7         -3.7146    2.4947   -0.1698 C.2       1 <0>         0.1760
     10 C8         -2.7628    3.4725   -0.1441 C.2       1 <0>        -0.1031
     11 C9         -3.0024    4.9583   -0.2222 C.3       1 <0>         0.2024
     12 H1         -4.0473    5.1702    0.0044 H         1 <0>         0.1632
     13 C10        -2.6756    5.4541   -1.6323 C.3       1 <0>         0.0969
     14 Cl1        -3.6215    4.5038   -2.8378 Cl        1 <0>        -0.0614
     15 Cl2        -3.1069    7.1993   -1.7707 Cl        1 <0>        -0.0629
     16 Cl3        -0.9134    5.2435   -1.9501 Cl        1 <0>        -0.0940
     17 O1         -2.1649    5.6262    0.7236 O.3       1 <0>        -0.5160
     18 C11        -5.1733    2.7081   -0.2805 C.2       1 <0>         0.0694
     19 C12        -6.0435    1.9252   -0.9711 C.2       1 <0>        -0.1506
     20 C13        -7.3227    2.4939   -0.8038 C.2       1 <0>        -0.1496
     21 C14        -7.1697    3.5895   -0.0333 C.2       1 <0>        -0.0199
     22 O2         -5.8695    3.7156    0.2808 O.3       1 <0>        -0.1566
     23 Br1        -8.5546    4.7549    0.5141 Br        1 <0>         0.0618
     24 H2          2.0854   -0.1164   -0.6844 H         1 <0>         0.0816
     25 H3          2.5341    0.6428    0.8617 H         1 <0>         0.0759
     26 H4          1.4204   -0.7455    0.8421 H         1 <0>         0.0768
     27 H5          1.7769    2.8750    0.1987 H         1 <0>         0.1585
     28 H6         -0.1000    4.3934    0.0034 H         1 <0>         0.1601
     29 H7         -0.8810   -0.4614    0.1518 H         1 <0>         0.1593
     30 H8         -1.2192    5.4819    0.5823 H         1 <0>         0.3741
     31 H9         -5.8021    1.0375   -1.5369 H         1 <0>         0.1646
     32 H10        -8.2491    2.1243   -1.2181 H         1 <0>         0.1672
@<TRIPOS>BOND
     1    1    2 1
     2    1   24 1
     3    1   25 1
     4    1   26 1
     5    2    7 2
     6    2    3 1
     7    3    4 2
     8    3   27 1
     9    4    5 1
    10    4   28 1
    11    5   10 1
    12    5    6 1
    13    6    7 1
    14    6    8 2
    15    7   29 1
    16    8    9 1
    17    9   10 2
    18    9   18 1
    19   10   11 1
    20   11   12 1
    21   11   13 1
    22   11   17 1
    23   13   14 1
    24   13   15 1
    25   13   16 1
    26   17   30 1
    27   18   22 1
    28   18   19 2
    29   19   20 1
    30   19   31 1
    31   20   21 2
    32   20   32 1
    33   21   22 1
    34   21   23 1
@<TRIPOS>MOLECULE
ZINC20886101
   47    50     0     0     0
SMALL
USER_CHARGES
(4S,7S)-4-(3-bromo-4-fluoro-phenyl)-7-(3-methoxyphenyl)-1,3,4,6,7,8-hexahydroquinoline-2,5-dione
@<TRIPOS>ATOM
      1 C1         -3.6103    3.0092    0.0495 C.3       1 <0>         0.0230
      2 O1         -2.4214    3.8020    0.0428 O.3       1 <0>        -0.3169
      3 C2         -1.2364    3.1369    0.0293 C.ar      1 <0>         0.1312
      4 C3         -1.2183    1.7495    0.0173 C.ar      1 <0>        -0.2074
      5 C4         -0.0126    1.0758    0.0080 C.ar      1 <0>        -0.0751
      6 C5          1.1758    1.7829    0.0004 C.ar      1 <0>        -0.1519
      7 C6          1.1605    3.1652    0.0080 C.ar      1 <0>        -0.0447
      8 C7         -0.0430    3.8438    0.0222 C.ar      1 <0>        -0.1441
      9 C8          2.4574    3.9326    0.0002 C.3       1 <0>        -0.0349
     10 H1          2.2198    5.0066    0.0011 H         1 <0>         0.0959
     11 C9          3.2780    3.5672    1.2392 C.3       1 <0>        -0.0961
     12 C10         4.5978    4.2968    1.2060 C.2       1 <0>         0.2321
     13 C11         5.1878    4.6061    0.0322 C.2       1 <0>        -0.2790
     14 C12         6.5125    5.3321    0.0239 C.3       1 <0>         0.0095
     15 H2          6.6255    5.8696   -0.9292 H         1 <0>         0.1170
     16 C13         6.5603    6.3147    1.1952 C.3       1 <0>        -0.1397
     17 C14         6.1247    5.6063    2.4519 C.2       1 <0>         0.5251
     18 O2          6.6182    5.9071    3.5177 O.2       1 <0>        -0.5023
     19 N1          5.1906    4.6414    2.3940 N.am      1 <0>        -0.6761
     20 C15         7.6336    4.3342    0.1588 C.ar      1 <0>        -0.0823
     21 C16         7.7070    3.5248    1.2773 C.ar      1 <0>        -0.0816
     22 C17         8.7318    2.6058    1.4003 C.ar      1 <0>        -0.1428
     23 C18         9.6918    2.5031    0.4080 C.ar      1 <0>         0.1269
     24 C19         9.6207    3.3180   -0.7099 C.ar      1 <0>        -0.1282
     25 C20         8.5908    4.2329   -0.8331 C.ar      1 <0>        -0.0476
     26 Br1        10.9304    3.1792   -2.0668 Br        1 <0>        -0.0238
     27 F1         10.6969    1.6086    0.5297 F         1 <0>        -0.1227
     28 C21         4.5944    4.2696   -1.1959 C.2       1 <0>         0.4083
     29 O3          5.1622    4.5528   -2.2319 O.2       1 <0>        -0.4631
     30 C22         3.2660    3.5636   -1.2479 C.3       1 <0>        -0.1614
     31 H3         -4.4907    3.6686    0.0603 H         1 <0>         0.1037
     32 H4         -3.6198    2.3702    0.9448 H         1 <0>         0.0574
     33 H5         -3.6355    2.3786   -0.8514 H         1 <0>         0.0577
     34 H6         -2.1462    1.1969    0.0187 H         1 <0>         0.1286
     35 H7          0.0021   -0.0041    0.0020 H         1 <0>         0.1268
     36 H8          2.1176    1.2543   -0.0111 H         1 <0>         0.1250
     37 H9         -0.0545    4.9237    0.0281 H         1 <0>         0.1319
     38 H10         2.7237    3.8559    2.1444 H         1 <0>         0.0999
     39 H11         3.4604    2.4825    1.2514 H         1 <0>         0.1077
     40 H12         7.5875    6.6885    1.3185 H         1 <0>         0.1176
     41 H13         5.8846    7.1589    0.9934 H         1 <0>         0.1164
     42 H14         4.9037    4.1251    3.3220 H         1 <0>         0.4423
     43 H15         6.9609    3.6082    2.0537 H         1 <0>         0.1356
     44 H16         8.7862    1.9710    2.2724 H         1 <0>         0.1449
     45 H17         8.5348    4.8685   -1.7045 H         1 <0>         0.1469
     46 H18         3.4245    2.4754   -1.2736 H         1 <0>         0.1066
     47 H19         2.7147    3.8752   -2.1473 H         1 <0>         0.1037
@<TRIPOS>BOND
     1    1    2 1
     2    1   31 1
     3    1   32 1
     4    1   33 1
     5    2    3 1
     6    3    8 ar
     7    3    4 ar
     8    4    5 ar
     9    4   34 1
    10    5    6 ar
    11    5   35 1
    12    6    7 ar
    13    6   36 1
    14    7    8 ar
    15    7    9 1
    16    8   37 1
    17    9   10 1
    18    9   30 1
    19    9   11 1
    20   11   12 1
    21   11   38 1
    22   11   39 1
    23   12   19 1
    24   12   13 2
    25   13   14 1
    26   13   28 1
    27   14   15 1
    28   14   16 1
    29   14   20 1
    30   16   17 1
    31   16   40 1
    32   16   41 1
    33   17   18 2
    34   17   19 am
    35   19   42 1
    36   20   25 ar
    37   20   21 ar
    38   21   22 ar
    39   21   43 1
    40   22   23 ar
    41   22   44 1
    42   23   24 ar
    43   23   27 1
    44   24   25 ar
    45   24   26 1
    46   25   45 1
    47   28   29 2
    48   28   30 1
    49   30   46 1
    50   30   47 1
@<TRIPOS>MOLECULE
ZINC36530506
   50    51     0     0     0
SMALL
USER_CHARGES

@<TRIPOS>ATOM
      1 C1         -0.0018   -2.0461    0.6240 C.3       1 <0>        -0.1633
      2 C2          0.8852   -3.0752   -0.0797 C.3       1 <0>         0.1730
      3 C3          2.0907   -3.3994    0.8050 C.3       1 <0>        -0.1646
      4 C4          0.0815   -4.3520   -0.3344 C.3       1 <0>        -0.1561
      5 N1          1.3497   -2.5277   -1.3566 N.am      1 <0>        -0.7179
      6 C5          2.0533   -1.3784   -1.3810 C.2       1 <0>         0.5183
      7 O1          2.3591   -0.8325   -0.3421 O.2       1 <0>        -0.5116
      8 C6          2.4599   -0.7717   -2.6992 C.3       1 <0>         0.1605
      9 H1          3.0454   -1.4949   -3.2668 H         1 <0>         0.1432
     10 C7          1.2274   -0.3982   -3.4817 C.ar      1 <0>        -0.0935
     11 C8          1.1583   -0.6718   -4.8360 C.ar      1 <0>        -0.0086
     12 C9          0.0265   -0.3285   -5.5539 C.ar      1 <0>        -0.1035
     13 C10        -1.0349    0.2880   -4.9184 C.ar      1 <0>        -0.0808
     14 C11        -0.9664    0.5616   -3.5653 C.ar      1 <0>        -0.1047
     15 C12         0.1624    0.2133   -2.8450 C.ar      1 <0>        -0.0215
     16 Cl1         0.2451    0.5501   -1.1440 Cl        1 <0>        -0.0213
     17 Cl2         2.4917   -1.4451   -5.6346 Cl        1 <0>        -0.0360
     18 N2          3.2664    0.4271   -2.4569 N.am      1 <0>        -0.5746
     19 C13         2.6490    1.6191   -1.8702 C.3       1 <0>         0.0657
     20 C14         4.5764    0.4333   -2.7736 C.2       1 <0>         0.6419
     21 O2          5.0893   -0.5569   -3.2609 O.2       1 <0>        -0.5118
     22 C15         5.3648    1.6051   -2.5368 C.1       1 <0>        -0.1931
     23 C16         6.0111    2.5657   -2.3426 C.1       1 <0>        -0.0283
     24 C17         6.7995    3.7375   -2.1058 C.ar      1 <0>        -0.0074
     25 C18         6.2151    4.8753   -1.5407 C.ar      1 <0>        -0.0868
     26 C19         6.9810    5.9995   -1.3153 C.ar      1 <0>        -0.1192
     27 C20         8.3246    6.0039   -1.6472 C.ar      1 <0>        -0.1017
     28 C21         8.9101    4.8819   -2.2073 C.ar      1 <0>        -0.1188
     29 C22         8.1590    3.7478   -2.4331 C.ar      1 <0>        -0.0858
     30 H2          0.5527   -1.1167    0.7536 H         1 <0>         0.0779
     31 H3         -0.8897   -1.8584    0.0203 H         1 <0>         0.0551
     32 H4         -0.3002   -2.4302    1.5995 H         1 <0>         0.0623
     33 H5          1.7450   -3.8068    1.7551 H         1 <0>         0.0629
     34 H6          2.7225   -4.1325    0.3037 H         1 <0>         0.0545
     35 H7          2.6632   -2.4898    0.9865 H         1 <0>         0.0782
     36 H8         -0.7773   -4.1211   -0.9646 H         1 <0>         0.0620
     37 H9          0.7134   -5.0851   -0.8357 H         1 <0>         0.0629
     38 H10        -0.2642   -4.7594    0.6157 H         1 <0>         0.0750
     39 H11         1.1509   -2.9923   -2.1846 H         1 <0>         0.3985
     40 H12        -0.0276   -0.5421   -6.6112 H         1 <0>         0.1466
     41 H13        -1.9179    0.5563   -5.4794 H         1 <0>         0.1477
     42 H14        -1.7959    1.0437   -3.0693 H         1 <0>         0.1452
     43 H15         2.6313    1.5222   -0.7847 H         1 <0>         0.0781
     44 H16         3.2267    2.5010   -2.1469 H         1 <0>         0.0715
     45 H17         1.6297    1.7209   -2.2426 H         1 <0>         0.0781
     46 H18         5.1666    4.8736   -1.2818 H         1 <0>         0.1295
     47 H19         6.5311    6.8791   -0.8789 H         1 <0>         0.1314
     48 H20         8.9192    6.8877   -1.4686 H         1 <0>         0.1289
     49 H21         9.9591    4.8931   -2.4640 H         1 <0>         0.1316
     50 H22         8.6183    2.8715   -2.8661 H         1 <0>         0.1301
@<TRIPOS>BOND
     1    1    2 1
     2    1   30 1
     3    1   31 1
     4    1   32 1
     5    2    3 1
     6    2    4 1
     7    2    5 1
     8    3   33 1
     9    3   34 1
    10    3   35 1
    11    4   36 1
    12    4   37 1
    13    4   38 1
    14    5    6 am
    15    5   39 1
    16    6    7 2
    17    6    8 1
    18    8    9 1
    19    8   10 1
    20    8   18 1
    21   10   15 ar
    22   10   11 ar
    23   11   12 ar
    24   11   17 1
    25   12   13 ar
    26   12   40 1
    27   13   14 ar
    28   13   41 1
    29   14   15 ar
    30   14   42 1
    31   15   16 1
    32   18   19 1
    33   18   20 am
    34   19   43 1
    35   19   44 1
    36   19   45 1
    37   20   21 2
    38   20   22 1
    39   22   23 3
    40   23   24 1
    41   24   29 ar
    42   24   25 ar
    43   25   26 ar
    44   25   46 1
    45   26   27 ar
    46   26   47 1
    47   27   28 ar
    48   27   48 1
    49   28   29 ar
    50   28   49 1
    51   29   50 1
@<TRIPOS>MOLECULE
ZINC59888720
   45    48     0     0     0
SMALL
USER_CHARGES

@<TRIPOS>ATOM
      1 C1          0.1020    1.5730    0.1128 C.ar      1 <0>        -0.1157
      2 C2          1.3252    2.2162    0.0824 C.ar      1 <0>        -0.1232
      3 C3          2.4932    1.4784    0.0339 C.ar      1 <0>        -0.1090
      4 C4          2.4379    0.0973    0.0163 C.ar      1 <0>        -0.0689
      5 C5          1.2148   -0.5460    0.0476 C.ar      1 <0>        -0.0798
      6 C6          0.0468    0.1918    0.0946 C.ar      1 <0>        -0.1229
      7 C7          3.7112   -0.7071   -0.0376 C.3       1 <0>        -0.0252
      8 C8          3.8699   -1.4828    1.2447 C.ar      1 <0>        -0.0782
      9 C9          3.0119   -2.5282    1.5308 C.ar      1 <0>        -0.1078
     10 C10         3.1575   -3.2398    2.7070 C.ar      1 <0>        -0.1153
     11 C11         4.1614   -2.9062    3.5968 C.ar      1 <0>        -0.1163
     12 C12         5.0200   -1.8613    3.3103 C.ar      1 <0>        -0.1163
     13 C13         4.8770   -1.1526    2.1321 C.ar      1 <0>        -0.1088
     14 C14         3.6517   -1.6646   -1.1998 C.2       1 <0>         0.5256
     15 O1          2.6719   -1.6912   -1.9141 O.2       1 <0>        -0.5225
     16 N1          4.6874   -2.4913   -1.4455 N.am      1 <0>        -0.7202
     17 C15         4.6296   -3.4221   -2.5753 C.3       1 <0>         0.2040
     18 C16         5.9028   -4.2265   -2.6292 C.2       1 <0>         0.0430
     19 C17         6.0835   -5.4531   -2.0922 C.2       1 <0>        -0.0648
     20 N2          7.3716   -5.8270   -2.3629 N.pl3     1 <0>        -0.3618
     21 C18         8.0888   -6.9501   -2.0661 C.2       1 <0>         0.0964
     22 C19         9.3744   -7.0690   -2.4614 C.2       1 <0>        -0.1146
     23 C20         9.9916   -6.0348   -3.1854 C.2       1 <0>        -0.0844
     24 C21         9.2878   -4.9107   -3.4874 C.2       1 <0>        -0.0634
     25 C22         7.9469   -4.8019   -3.0677 C.2       1 <0>         0.2279
     26 N3          7.0385   -3.8484   -3.2204 N.2       1 <0>        -0.4686
     27 Br1        10.3486   -8.6336   -2.0384 Br        1 <0>        -0.0061
     28 H1         -0.8103    2.1494    0.1552 H         1 <0>         0.1212
     29 H2          1.3683    3.2953    0.0962 H         1 <0>         0.1225
     30 H3          3.4488    1.9810    0.0095 H         1 <0>         0.1209
     31 H4          1.1716   -1.6251    0.0331 H         1 <0>         0.1202
     32 H5         -0.9088   -0.3107    0.1187 H         1 <0>         0.1215
     33 H6          4.5603   -0.0353   -0.1633 H         1 <0>         0.1123
     34 H7          2.2276   -2.7889    0.8356 H         1 <0>         0.1223
     35 H8          2.4868   -4.0561    2.9308 H         1 <0>         0.1236
     36 H9          4.2747   -3.4616    4.5161 H         1 <0>         0.1229
     37 H10         5.8040   -1.6005    4.0057 H         1 <0>         0.1245
     38 H11         5.5501   -0.3386    1.9065 H         1 <0>         0.1247
     39 H12         5.4710   -2.4701   -0.8742 H         1 <0>         0.4033
     40 H13         3.7804   -4.0939   -2.4496 H         1 <0>         0.0876
     41 H14         4.5147   -2.8611   -3.5028 H         1 <0>         0.0888
     42 H15         5.3488   -6.0303   -1.5506 H         1 <0>         0.1895
     43 H16         7.6237   -7.7506   -1.5099 H         1 <0>         0.1742
     44 H17        11.0202   -6.1318   -3.5002 H         1 <0>         0.1546
     45 H18         9.7520   -4.1096   -4.0433 H         1 <0>         0.1626
@<TRIPOS>BOND
     1    1    6 ar
     2    1    2 ar
     3    1   28 1
     4    2    3 ar
     5    2   29 1
     6    3    4 ar
     7    3   30 1
     8    4    5 ar
     9    4    7 1
    10    5    6 ar
    11    5   31 1
    12    6   32 1
    13    7    8 1
    14    7   14 1
    15    7   33 1
    16    8   13 ar
    17    8    9 ar
    18    9   10 ar
    19    9   34 1
    20   10   11 ar
    21   10   35 1
    22   11   12 ar
    23   11   36 1
    24   12   13 ar
    25   12   37 1
    26   13   38 1
    27   14   15 2
    28   14   16 am
    29   16   17 1
    30   16   39 1
    31   17   18 1
    32   17   40 1
    33   17   41 1
    34   18   26 1
    35   18   19 2
    36   19   20 1
    37   19   42 1
    38   20   25 1
    39   20   21 1
    40   21   22 2
    41   21   43 1
    42   22   23 1
    43   22   27 1
    44   23   24 2
    45   23   44 1
    46   24   25 1
    47   24   45 1
    48   25   26 2
@<TRIPOS>MOLECULE
ZINC04369590
   56    59     0     0     0
SMALL
USER_CHARGES
(10,13-dimethyl-2-oxo-1,3,4,5,6,7,8,9,11,12,14,15,16,17-tetradecahydrocyclopenta[a]phenanthren-17-yl) acetate
@<TRIPOS>ATOM
      1 C1          2.2490    5.4261    0.9563 C.3       1 <0>        -0.1486
      2 C2          0.9105    4.8359    1.3184 C.2       1 <0>         0.4567
      3 O1          0.1588    5.4431    2.0436 O.2       1 <0>        -0.5156
      4 O2          0.5535    3.6356    0.8352 O.3       1 <0>        -0.3419
      5 C3         -0.7472    3.1300    1.2249 C.3       1 <0>         0.0837
      6 H1         -1.0576    3.5264    2.1867 H         1 <0>         0.0914
      7 C4         -1.8096    3.4217    0.1305 C.3       1 <0>        -0.1395
      8 C5         -2.7254    2.1711    0.0743 C.3       1 <0>        -0.1122
      9 C6         -2.2470    1.3070    1.2449 C.3       1 <0>        -0.0758
     10 H2         -2.6849    1.7452    2.1653 H         1 <0>         0.0680
     11 C7         -0.7289    1.5793    1.2669 C.3       1 <0>        -0.0480
     12 C8         -0.0985    1.0200    2.5195 C.3       1 <0>        -0.1065
     13 C9         -0.7748   -0.2908    2.9407 C.3       1 <0>        -0.1101
     14 C10        -1.4229   -0.9887    1.7532 C.3       1 <0>        -0.0697
     15 H3         -0.6838   -1.1308    0.9648 H         1 <0>         0.0833
     16 C11        -2.5862   -0.1498    1.2190 C.3       1 <0>        -0.0660
     17 H4         -3.4356   -0.2993    1.9156 H         1 <0>         0.0668
     18 C12        -3.0304   -0.6700   -0.1428 C.3       1 <0>        -0.1109
     19 C13        -3.1175   -2.2039   -0.0883 C.3       1 <0>        -0.1123
     20 C14        -3.2447   -2.6347    1.3671 C.3       1 <0>        -0.0838
     21 H5         -4.0254   -2.0104    1.8301 H         1 <0>         0.0745
     22 C15        -1.9376   -2.3780    2.1199 C.3       1 <0>        -0.0441
     23 C16        -2.2230   -2.5135    3.6185 C.3       1 <0>        -0.1505
     24 C17        -2.7553   -3.9200    3.8310 C.2       1 <0>         0.3610
     25 O3         -2.2513   -4.6470    4.6546 O.2       1 <0>        -0.4585
     26 C18        -3.9240   -4.3940    3.0012 C.3       1 <0>        -0.1614
     27 C19        -3.6861   -4.0824    1.5183 C.3       1 <0>        -0.1097
     28 C20        -0.8762   -3.4053    1.7195 C.3       1 <0>        -0.1494
     29 C21        -0.0127    1.0858    0.0080 C.3       1 <0>        -0.1369
     30 H6          2.7831    4.7397    0.2993 H         1 <0>         0.0908
     31 H7          2.1004    6.3771    0.4447 H         1 <0>         0.1044
     32 H8          2.8318    5.5886    1.8630 H         1 <0>         0.1045
     33 H9         -1.3283    3.5782   -0.8326 H         1 <0>         0.0767
     34 H10        -2.3966    4.2981    0.4042 H         1 <0>         0.0691
     35 H11        -2.6043    1.6510   -0.8700 H         1 <0>         0.0766
     36 H12        -3.7641    2.4611    0.2238 H         1 <0>         0.0680
     37 H13         0.9694    0.8388    2.3453 H         1 <0>         0.0657
     38 H14        -0.1859    1.7510    3.3336 H         1 <0>         0.0602
     39 H15        -0.0248   -0.9512    3.3867 H         1 <0>         0.0647
     40 H16        -1.5349   -0.0756    3.6970 H         1 <0>         0.0622
     41 H17        -2.3133   -0.3808   -0.9076 H         1 <0>         0.0664
     42 H18        -4.0119   -0.2654   -0.3874 H         1 <0>         0.0640
     43 H19        -2.2300   -2.6375   -0.5415 H         1 <0>         0.0656
     44 H20        -4.0023   -2.5296   -0.6412 H         1 <0>         0.0641
     45 H21        -1.3791   -2.3631    4.1335 H         1 <0>         0.0838
     46 H22        -2.9708   -1.7829    3.9241 H         1 <0>         0.0968
     47 H23        -4.0309   -5.3823    3.1099 H         1 <0>         0.0786
     48 H24        -4.8343   -3.8950    3.3365 H         1 <0>         0.0985
     49 H25        -2.9626   -4.7697    1.0945 H         1 <0>         0.0724
     50 H26        -4.6350   -4.2170    0.9785 H         1 <0>         0.0720
     51 H27         0.0507   -3.1972    2.2539 H         1 <0>         0.0590
     52 H28        -1.2252   -4.4062    1.9735 H         1 <0>         0.0545
     53 H29        -0.6982   -3.3442    0.6459 H         1 <0>         0.0637
     54 H30         0.0253   -0.0035    0.0150 H         1 <0>         0.0611
     55 H31         1.0015    1.4846   -0.0129 H         1 <0>         0.0638
     56 H32        -0.5547    1.4248   -0.8748 H         1 <0>         0.0584
@<TRIPOS>BOND
     1    1    2 1
     2    1   30 1
     3    1   31 1
     4    1   32 1
     5    2    3 2
     6    2    4 1
     7    4    5 1
     8    5    6 1
     9    5   11 1
    10    5    7 1
    11    7    8 1
    12    7   33 1
    13    7   34 1
    14    8    9 1
    15    8   35 1
    16    8   36 1
    17    9   10 1
    18    9   16 1
    19    9   11 1
    20   11   12 1
    21   11   29 1
    22   12   13 1
    23   12   37 1
    24   12   38 1
    25   13   14 1
    26   13   39 1
    27   13   40 1
    28   14   15 1
    29   14   22 1
    30   14   16 1
    31   16   17 1
    32   16   18 1
    33   18   19 1
    34   18   41 1
    35   18   42 1
    36   19   20 1
    37   19   43 1
    38   19   44 1
    39   20   21 1
    40   20   27 1
    41   20   22 1
    42   22   23 1
    43   22   28 1
    44   23   24 1
    45   23   45 1
    46   23   46 1
    47   24   25 2
    48   24   26 1
    49   26   27 1
    50   26   47 1
    51   26   48 1
    52   27   49 1
    53   27   50 1
    54   28   51 1
    55   28   52 1
    56   28   53 1
    57   29   54 1
    58   29   55 1
    59   29   56 1
@<TRIPOS>MOLECULE
ZINC05371577
   37    39     0     0     0
SMALL
USER_CHARGES
3-(2,5-dimethylphenyl)-5-[(5-methyl-2-furyl)methylene]-2-thioxo-thiazolidin-4-one
@<TRIPOS>ATOM
      1 C1          7.2447   -0.1093    2.7434 C.3       1 <0>        -0.1146
      2 C2          6.9018    0.5584    1.4367 C.ar      1 <0>        -0.0798
      3 C3          7.3853    0.0410    0.2487 C.ar      1 <0>        -0.0930
      4 C4          7.0725    0.6505   -0.9522 C.ar      1 <0>        -0.1066
      5 C5          6.2716    1.7760   -0.9692 C.ar      1 <0>        -0.0555
      6 C6          5.7899    2.3013    0.2221 C.ar      1 <0>         0.0975
      7 C7          6.1054    1.6866    1.4266 C.ar      1 <0>        -0.0820
      8 N1          4.9821    3.4462    0.2086 N.am      1 <0>        -0.4748
      9 C8          3.6700    3.3107    0.1157 C.2       1 <0>         0.5295
     10 O1          3.1447    2.2145    0.0420 O.2       1 <0>        -0.4226
     11 C9          2.8754    4.5502    0.1013 C.2       1 <0>        -0.2602
     12 C10         1.5250    4.7158    0.0118 C.2       1 <0>         0.1229
     13 C11         0.6654    3.6016    0.1498 C.2       1 <0>        -0.0554
     14 C12        -0.7038    3.6033   -0.0274 C.2       1 <0>        -0.1166
     15 C13        -1.1379    2.2889    0.2042 C.2       1 <0>        -0.2323
     16 C14        -0.0459    1.5558    0.5143 C.2       1 <0>         0.0434
     17 O2          1.0368    2.3464    0.4777 O.3       1 <0>        -0.1197
     18 C15        -0.0441    0.0849    0.8421 C.3       1 <0>        -0.0857
     19 S1          4.1670    5.7782    0.2414 S.3       1 <0>         0.0780
     20 C16         5.5596    4.6619    0.2973 C.2       1 <0>         0.2784
     21 S2          7.2234    5.0423    0.4309 S.2       1 <0>        -0.3191
     22 C17         5.9264    2.4364   -2.2790 C.3       1 <0>        -0.1183
     23 H1          6.4909   -0.8614    2.9759 H         1 <0>         0.0734
     24 H2          8.2213   -0.5865    2.6623 H         1 <0>         0.0724
     25 H3          7.2700    0.6373    3.5373 H         1 <0>         0.0685
     26 H4          8.0082   -0.8412    0.2591 H         1 <0>         0.1324
     27 H5          7.4512    0.2439   -1.8783 H         1 <0>         0.1345
     28 H6          5.7287    2.0906    2.3547 H         1 <0>         0.1242
     29 H7          1.1118    5.6979   -0.1646 H         1 <0>         0.1812
     30 H8         -1.3193    4.4490   -0.2961 H         1 <0>         0.1627
     31 H9         -2.1551    1.9306    0.1472 H         1 <0>         0.1580
     32 H10         0.9759   -0.2405    1.0465 H         1 <0>         0.0814
     33 H11        -0.6650   -0.0923    1.7203 H         1 <0>         0.0926
     34 H12        -0.4420   -0.4762   -0.0034 H         1 <0>         0.0932
     35 H13         6.6801    3.1870   -2.5172 H         1 <0>         0.0805
     36 H14         5.8994    1.6854   -3.0686 H         1 <0>         0.0781
     37 H15         4.9502    2.9144   -2.1987 H         1 <0>         0.0536
@<TRIPOS>BOND
     1    1    2 1
     2    1   23 1
     3    1   24 1
     4    1   25 1
     5    2    7 ar
     6    2    3 ar
     7    3    4 ar
     8    3   26 1
     9    4    5 ar
    10    4   27 1
    11    5    6 ar
    12    5   22 1
    13    6    7 ar
    14    6    8 1
    15    7   28 1
    16    8   20 1
    17    8    9 am
    18    9   10 2
    19    9   11 1
    20   11   12 2
    21   11   19 1
    22   12   13 1
    23   12   29 1
    24   13   17 1
    25   13   14 2
    26   14   15 1
    27   14   30 1
    28   15   16 2
    29   15   31 1
    30   16   17 1
    31   16   18 1
    32   18   32 1
    33   18   33 1
    34   18   34 1
    35   19   20 1
    36   20   21 2
    37   22   35 1
    38   22   36 1
    39   22   37 1
@<TRIPOS>MOLECULE
ZINC19911544
   56    59     0     0     0
SMALL
USER_CHARGES
[(5S,8R,9R,10R,13R,14R,17R)-10,13-dimethyl-3-oxo-1,2,4,5,6,7,8,9,11,12,14,15,16,17-tetradecahydrocyclopenta[a]phenanthren-17-yl] acetate
@<TRIPOS>ATOM
      1 C1          5.8415    1.1684   -4.6339 C.3       1 <0>        -0.1518
      2 C2          4.4903    0.5696   -4.3391 C.2       1 <0>         0.4572
      3 O1          4.3019   -0.6112   -4.5127 O.2       1 <0>        -0.5164
      4 O2          3.4962    1.3481   -3.8837 O.3       1 <0>        -0.3537
      5 C3          2.2254    0.7054   -3.6220 C.3       1 <0>         0.0827
      6 H1          2.5070   -0.3347   -3.4009 H         1 <0>         0.0922
      7 C4          1.2672    0.8761   -4.8309 C.3       1 <0>        -0.1388
      8 C5         -0.1036    1.3259   -4.2454 C.3       1 <0>        -0.1080
      9 C6          0.0498    0.9845   -2.7590 C.3       1 <0>        -0.0821
     10 H2         -0.1720   -0.0762   -2.5699 H         1 <0>         0.0744
     11 C7          1.4926    1.4439   -2.4813 C.3       1 <0>        -0.0377
     12 C8          1.9020    1.0579   -1.0820 C.3       1 <0>        -0.1050
     13 C9          0.8867    1.6451   -0.0824 C.3       1 <0>        -0.1132
     14 C10        -0.5095    1.1146   -0.3680 C.3       1 <0>        -0.0640
     15 H3         -0.4388    0.0196   -0.2908 H         1 <0>         0.0650
     16 C11        -0.9641    1.5009   -1.7851 C.3       1 <0>        -0.0715
     17 H4         -1.9184    1.0299   -2.0632 H         1 <0>         0.0661
     18 C12        -1.2396    2.9924   -1.8806 C.3       1 <0>        -0.1248
     19 C13        -2.3246    3.3745   -0.8624 C.3       1 <0>        -0.1216
     20 C14        -1.7940    3.0636    0.5405 C.3       1 <0>        -0.0670
     21 H5         -0.8439    3.5897    0.7154 H         1 <0>         0.0832
     22 C15        -1.5393    1.5642    0.6672 C.3       1 <0>        -0.0462
     23 C16        -2.8399    0.7892    0.4266 C.3       1 <0>        -0.1084
     24 C17        -3.9102    1.1842    1.4423 C.3       1 <0>        -0.1730
     25 C18        -4.0592    2.6875    1.4577 C.2       1 <0>         0.3634
     26 O3         -5.1501    3.2023    1.3759 O.2       1 <0>        -0.4606
     27 C19        -2.8135    3.5348    1.5782 C.3       1 <0>        -0.1704
     28 C20        -1.0267    1.2388    2.0750 C.3       1 <0>        -0.1523
     29 C21         1.7201    2.9356   -2.7156 C.3       1 <0>        -0.1417
     30 H6          5.8201    2.2465   -4.4164 H         1 <0>         0.0916
     31 H7          6.0878    1.0131   -5.6947 H         1 <0>         0.1053
     32 H8          6.6027    0.6827   -4.0058 H         1 <0>         0.1054
     33 H9          1.6719    1.6365   -5.5150 H         1 <0>         0.0759
     34 H10         1.1731   -0.0824   -5.3624 H         1 <0>         0.0714
     35 H11        -0.2442    2.4018   -4.4261 H         1 <0>         0.0762
     36 H12        -0.9131    0.7633   -4.7334 H         1 <0>         0.0690
     37 H13         1.9178   -0.0385   -0.9939 H         1 <0>         0.0623
     38 H14         2.9048    1.4572   -0.8700 H         1 <0>         0.0671
     39 H15         1.1741    1.3621    0.9410 H         1 <0>         0.0695
     40 H16         0.8773    2.7415   -0.1707 H         1 <0>         0.0676
     41 H17        -0.3170    3.5504   -1.6625 H         1 <0>         0.0750
     42 H18        -1.5848    3.2373   -2.8959 H         1 <0>         0.0627
     43 H19        -2.5503    4.4473   -0.9524 H         1 <0>         0.0659
     44 H20        -3.2354    2.7903   -1.0605 H         1 <0>         0.0635
     45 H21        -3.2155    1.0080   -0.5839 H         1 <0>         0.0723
     46 H22        -2.6466   -0.2896    0.5203 H         1 <0>         0.0739
     47 H23        -4.8691    0.7235    1.1625 H         1 <0>         0.0881
     48 H24        -3.6135    0.8348    2.4423 H         1 <0>         0.0997
     49 H25        -2.3866    3.4282    2.5863 H         1 <0>         0.1005
     50 H26        -3.0620    4.5906    1.3950 H         1 <0>         0.0899
     51 H27        -1.7688    1.5629    2.8194 H         1 <0>         0.0583
     52 H28        -0.0772    1.7657    2.2504 H         1 <0>         0.0625
     53 H29        -0.8663    0.1543    2.1652 H         1 <0>         0.0592
     54 H30         1.2158    3.5119   -1.9259 H         1 <0>         0.0642
     55 H31         1.3095    3.2196   -3.6958 H         1 <0>         0.0600
     56 H32         2.7988    3.1498   -2.6939 H         1 <0>         0.0665
@<TRIPOS>BOND
     1    1    2 1
     2    1   30 1
     3    1   31 1
     4    1   32 1
     5    2    3 2
     6    2    4 1
     7    4    5 1
     8    5    6 1
     9    5   11 1
    10    5    7 1
    11    7    8 1
    12    7   33 1
    13    7   34 1
    14    8    9 1
    15    8   35 1
    16    8   36 1
    17    9   10 1
    18    9   16 1
    19    9   11 1
    20   11   12 1
    21   11   29 1
    22   12   13 1
    23   12   37 1
    24   12   38 1
    25   13   14 1
    26   13   39 1
    27   13   40 1
    28   14   15 1
    29   14   22 1
    30   14   16 1
    31   16   17 1
    32   16   18 1
    33   18   19 1
    34   18   41 1
    35   18   42 1
    36   19   20 1
    37   19   43 1
    38   19   44 1
    39   20   21 1
    40   20   27 1
    41   20   22 1
    42   22   23 1
    43   22   28 1
    44   23   24 1
    45   23   45 1
    46   23   46 1
    47   24   25 1
    48   24   47 1
    49   24   48 1
    50   25   26 2
    51   25   27 1
    52   27   49 1
    53   27   50 1
    54   28   51 1
    55   28   52 1
    56   28   53 1
    57   29   54 1
    58   29   55 1
    59   29   56 1
@<TRIPOS>MOLECULE
ZINC43463691
   30    32     0     0     0
SMALL
USER_CHARGES

@<TRIPOS>ATOM
      1 C1          1.3632    1.3206    0.0041 C.3       1 <0>        -0.0839
      2 C2          0.9493   -0.1284   -0.0023 C.2       1 <0>         0.1529
      3 C3          0.7246   -0.8969   -1.1346 C.2       1 <0>        -0.2326
      4 C4          0.3634   -2.1707   -0.7144 C.2       1 <0>         0.2957
      5 N1          0.0397   -3.2873   -1.3750 N.2       1 <0>        -0.4361
      6 C5         -0.2709   -4.3975   -0.7347 C.2       1 <0>         0.2249
      7 C6         -0.2637   -4.4201    0.6621 C.2       1 <0>        -0.0973
      8 C7          0.0587   -3.2891    1.3458 C.2       1 <0>         0.0833
      9 N2          0.3756   -2.1555    0.6578 N.pl3     1 <0>        -0.2917
     10 N3          0.7484   -0.8696    1.0645 N.2       1 <0>        -0.2847
     11 C8          0.0655   -3.2892    2.8528 C.3       1 <0>         0.5225
     12 F1          0.6448   -4.4752    3.3164 F         1 <0>        -0.1569
     13 F2          0.8060   -2.1964    3.3158 F         1 <0>        -0.1471
     14 F3         -1.2481   -3.1962    3.3250 F         1 <0>        -0.1586
     15 C9         -0.5939   -5.6577    1.4527 C.3       1 <0>        -0.0883
     16 C10        -1.3306   -6.6702    0.5774 C.3       1 <0>        -0.1213
     17 C11        -0.5259   -6.8766   -0.7108 C.3       1 <0>        -0.1237
     18 C12        -0.6289   -5.6085   -1.5562 C.3       1 <0>        -0.0742
     19 Br1         0.8806   -0.3154   -2.9272 Br        1 <0>         0.0142
     20 H1          2.4511    1.3877   -0.0040 H         1 <0>         0.0947
     21 H2          0.9620    1.8170   -0.8795 H         1 <0>         0.0926
     22 H3          0.9759    1.8052    0.9003 H         1 <0>         0.0880
     23 H4          0.3283   -6.1053    1.8232 H         1 <0>         0.1051
     24 H5         -1.2248   -5.3869    2.2993 H         1 <0>         0.0897
     25 H6         -1.4198   -7.6175    1.1091 H         1 <0>         0.0867
     26 H7         -2.3222   -6.2896    0.3326 H         1 <0>         0.0746
     27 H8          0.5183   -7.0680   -0.4635 H         1 <0>         0.0744
     28 H9         -0.9341   -7.7210   -1.2662 H         1 <0>         0.0882
     29 H10        -1.6487   -5.5041   -1.9265 H         1 <0>         0.1047
     30 H11         0.0530   -5.6837   -2.4033 H         1 <0>         0.1041
@<TRIPOS>BOND
     1    1    2 1
     2    1   20 1
     3    1   21 1
     4    1   22 1
     5    2   10 2
     6    2    3 1
     7    3    4 2
     8    3   19 1
     9    4    9 1
    10    4    5 1
    11    5    6 2
    12    6   18 1
    13    6    7 1
    14    7    8 2
    15    7   15 1
    16    8    9 1
    17    8   11 1
    18    9   10 1
    19   11   12 1
    20   11   13 1
    21   11   14 1
    22   15   16 1
    23   15   23 1
    24   15   24 1
    25   16   17 1
    26   16   25 1
    27   16   26 1
    28   17   18 1
    29   17   27 1
    30   17   28 1
    31   18   29 1
    32   18   30 1
@<TRIPOS>MOLECULE
ZINC53580599
   23    25     0     0     0
SMALL
USER_CHARGES

@<TRIPOS>ATOM
      1 C1         -0.0168    1.3871    0.0097 C.ar      1 <0>        -0.1085
      2 C2          1.1443    2.1038    0.0024 C.ar      1 <0>        -0.0662
      3 C3          2.3699    1.4301   -0.0129 C.ar      1 <0>        -0.1329
      4 C4          2.3924    0.0141   -0.0207 C.ar      1 <0>         0.1869
      5 C5          1.1809   -0.6911   -0.0130 C.ar      1 <0>        -0.0789
      6 C6          0.0021   -0.0041    0.0020 C.ar      1 <0>        -0.0452
      7 Br1         1.1803   -2.5821   -0.0238 Br        1 <0>        -0.0126
      8 N1          3.5790   -0.6117   -0.0350 N.ar      1 <0>        -0.4973
      9 C7          4.6949    0.0782   -0.0415 C.ar      1 <0>         0.3197
     10 N2          4.7240    1.4011   -0.0346 N.ar      1 <0>        -0.4743
     11 C8          3.6080    2.1188   -0.0205 C.ar      1 <0>         0.1725
     12 S1          3.6643    3.8799   -0.0122 S.3       1 <0>         0.2146
     13 C9          5.3866    4.2514   -0.0258 C.2       1 <0>        -0.0308
     14 N3          6.4035    3.4158   -0.0449 N.2       1 <0>        -0.4541
     15 C10         7.6481    3.8565   -0.0529 C.2       1 <0>         0.0358
     16 C11         7.8261    5.2002   -0.0405 C.2       1 <0>        -0.2212
     17 S2          6.1311    5.7608   -0.0248 S.3       1 <0>         0.1714
     18 H1         -0.9634    1.9069    0.0261 H         1 <0>         0.1475
     19 H2          1.1171    3.1835    0.0081 H         1 <0>         0.1418
     20 H3         -0.9306   -0.5485    0.0080 H         1 <0>         0.1484
     21 H4          5.6324   -0.4580   -0.0526 H         1 <0>         0.2032
     22 H5          8.4870    3.1766   -0.0682 H         1 <0>         0.1783
     23 H6          8.7412    5.7737   -0.0438 H         1 <0>         0.2019
@<TRIPOS>BOND
     1    1    6 ar
     2    1    2 ar
     3    1   18 1
     4    2    3 ar
     5    2   19 1
     6    3   11 ar
     7    3    4 ar
     8    4    5 ar
     9    4    8 ar
    10    5    6 ar
    11    5    7 1
    12    6   20 1
    13    8    9 ar
    14    9   10 ar
    15    9   21 1
    16   10   11 ar
    17   11   12 1
    18   12   13 1
    19   13   17 1
    20   13   14 2
    21   14   15 1
    22   15   16 2
    23   15   22 1
    24   16   17 1
    25   16   23 1
@<TRIPOS>MOLECULE
ZINC01071879
   36    39     0     0     0
SMALL
USER_CHARGES
3-(4-chlorophenyl)-8-(4-fluorophenyl)-2-thioxo-7-thia-1,3-diazabicyclo[3.3.0]octan-4-one
@<TRIPOS>ATOM
      1 C1          2.4878   -0.8960    1.6023 C.ar      1 <0>        -0.0608
      2 C2          3.1862   -1.5890    2.5727 C.ar      1 <0>        -0.1535
      3 C3          4.5125   -1.9264    2.3624 C.ar      1 <0>         0.1230
      4 C4          5.1357   -1.5743    1.1771 C.ar      1 <0>        -0.1505
      5 C5          4.4334   -0.8867    0.2056 C.ar      1 <0>        -0.0462
      6 C6          3.1094   -0.5500    0.4169 C.ar      1 <0>        -0.1230
      7 C7          2.3449    0.2003   -0.6431 C.3       1 <0>         0.2728
      8 H1          2.9845    0.4208   -1.4977 H         1 <0>         0.1500
      9 N1          1.1440   -0.5592   -1.0648 N.pl3     1 <0>        -0.5703
     10 C8         -0.0090   -0.2676   -0.1880 C.3       1 <0>         0.0244
     11 H2          0.1212   -0.7083    0.8004 H         1 <0>         0.1606
     12 C9         -0.1734    1.2750   -0.1010 C.3       1 <0>        -0.0620
     13 S1          1.6080    1.7420    0.0468 S.3       1 <0>        -0.2141
     14 C10        -1.1790   -0.8747   -0.9256 C.2       1 <0>         0.5265
     15 O1         -2.3548   -0.7731   -0.6477 O.2       1 <0>        -0.4210
     16 N2         -0.6393   -1.5545   -1.9590 N.am      1 <0>        -0.4911
     17 C11         0.6910   -1.4084   -2.0042 C.2       1 <0>         0.5584
     18 S2          1.7005   -2.2121   -3.1293 S.2       1 <0>        -0.4931
     19 C12        -1.3797   -2.3188   -2.8719 C.ar      1 <0>         0.1149
     20 C13        -2.0360   -3.4660   -2.4470 C.ar      1 <0>        -0.0771
     21 C14        -2.7683   -4.2149   -3.3473 C.ar      1 <0>        -0.0987
     22 C15        -2.8397   -3.8281   -4.6741 C.ar      1 <0>        -0.0145
     23 C16        -2.1823   -2.6877   -5.1010 C.ar      1 <0>        -0.0972
     24 C17        -1.4528   -1.9329   -4.2035 C.ar      1 <0>        -0.0639
     25 Cl1        -3.7559   -4.7749   -5.8046 Cl        1 <0>        -0.0530
     26 F1          5.1982   -2.5982    3.3130 F         1 <0>        -0.1319
     27 H3          1.4547   -0.6283    1.7682 H         1 <0>         0.1294
     28 H4          2.6990   -1.8634    3.4967 H         1 <0>         0.1428
     29 H5          6.1703   -1.8366    1.0121 H         1 <0>         0.1455
     30 H6          4.9193   -0.6120   -0.7190 H         1 <0>         0.1434
     31 H7         -0.6193    1.6814   -1.0088 H         1 <0>         0.1150
     32 H8         -0.7382    1.5677    0.7841 H         1 <0>         0.1448
     33 H9         -1.9769   -3.7707   -1.4125 H         1 <0>         0.1365
     34 H10        -3.2821   -5.1053   -3.0164 H         1 <0>         0.1470
     35 H11        -2.2395   -2.3879   -6.1370 H         1 <0>         0.1476
     36 H12        -0.9400   -1.0429   -4.5372 H         1 <0>         0.1393
@<TRIPOS>BOND
     1    1    6 ar
     2    1    2 ar
     3    1   27 1
     4    2    3 ar
     5    2   28 1
     6    3    4 ar
     7    3   26 1
     8    4    5 ar
     9    4   29 1
    10    5    6 ar
    11    5   30 1
    12    6    7 1
    13    7    8 1
    14    7   13 1
    15    7    9 1
    16    9   17 1
    17    9   10 1
    18   10   11 1
    19   10   12 1
    20   10   14 1
    21   12   13 1
    22   12   31 1
    23   12   32 1
    24   14   15 2
    25   14   16 am
    26   16   17 1
    27   16   19 1
    28   17   18 2
    29   19   24 ar
    30   19   20 ar
    31   20   21 ar
    32   20   33 1
    33   21   22 ar
    34   21   34 1
    35   22   23 ar
    36   22   25 1
    37   23   24 ar
    38   23   35 1
    39   24   36 1
@<TRIPOS>MOLECULE
ZINC02563603
   60    63     0     0     0
SMALL
USER_CHARGES
(17-acetyl-10,13-dimethyl-2,3,4,7,8,9,11,12,14,15,16,17-dodecahydro-1H-cyclopenta[a]phenanthren-3-yl) acetate
@<TRIPOS>ATOM
      1 C1         -0.4612   -3.0390    0.4682 C.3       1 <0>        -0.1976
      2 C2          0.8700   -2.6633   -0.1300 C.2       1 <0>         0.3603
      3 O1          1.8925   -2.9453    0.4473 O.2       1 <0>        -0.4537
      4 C3          0.9251   -1.9357   -1.4486 C.3       1 <0>        -0.1245
      5 H1          0.1627   -2.2311   -2.0244 H         1 <0>         0.0894
      6 C4          2.2789   -2.2024   -2.1525 C.3       1 <0>        -0.1173
      7 C5          3.0101   -0.8343   -2.2286 C.3       1 <0>        -0.1132
      8 C6          2.3734   -0.0350   -1.0842 C.3       1 <0>        -0.0823
      9 H2          2.7679   -0.3723   -0.1257 H         1 <0>         0.0785
     10 C7          0.8781   -0.4278   -1.2225 C.3       1 <0>        -0.0502
     11 C8          0.1752    0.0444    0.0360 C.3       1 <0>        -0.1115
     12 C9          0.2508    1.5792    0.0476 C.3       1 <0>        -0.1183
     13 C10         1.6928    2.0751   -0.0106 C.3       1 <0>        -0.0671
     14 H3          2.1970    1.7733    0.9075 H         1 <0>         0.0659
     15 C11         2.4555    1.4765   -1.2005 C.3       1 <0>        -0.0696
     16 H4          2.0105    1.8073   -2.1389 H         1 <0>         0.0847
     17 C12         3.9219    1.9164   -1.1249 C.3       1 <0>        -0.0846
     18 C13         3.9927    3.4178   -1.0149 C.2       1 <0>        -0.1445
     19 C14         3.0134    4.1499   -0.5712 C.2       1 <0>        -0.1103
     20 C15         1.7120    3.5932   -0.0754 C.3       1 <0>        -0.0131
     21 C16         1.4156    4.1803    1.3075 C.3       1 <0>        -0.1040
     22 C17         1.4553    5.7077    1.2304 C.3       1 <0>        -0.1174
     23 C18         2.8609    6.1669    0.8388 C.3       1 <0>         0.0925
     24 H5          3.5848    5.7674    1.5490 H         1 <0>         0.0855
     25 C19         3.1908    5.6576   -0.5674 C.3       1 <0>        -0.0974
     26 O2          2.9180    7.6177    0.8539 O.3       1 <0>        -0.3552
     27 C20         4.1013    8.1780    1.1501 C.2       1 <0>         0.4574
     28 O3          5.0577    7.4793    1.3887 O.2       1 <0>        -0.5125
     29 C21         4.2368    9.6785    1.1849 C.3       1 <0>        -0.1488
     30 C22         0.6053    4.0441   -1.0308 C.3       1 <0>        -0.1497
     31 C23         0.2710    0.2618   -2.4459 C.3       1 <0>        -0.1480
     32 H6         -1.1966   -2.7322   -0.1360 H         1 <0>         0.0726
     33 H7         -0.5146   -4.1214    0.5849 H         1 <0>         0.0910
     34 H8         -0.5691   -2.5628    1.4427 H         1 <0>         0.0914
     35 H9          2.8696   -2.9106   -1.5714 H         1 <0>         0.0773
     36 H10         2.1084   -2.5927   -3.1559 H         1 <0>         0.0680
     37 H11         4.0805   -0.9594   -2.0647 H         1 <0>         0.0674
     38 H12         2.8221   -0.3491   -3.1863 H         1 <0>         0.0685
     39 H13         0.6772   -0.3588    0.9155 H         1 <0>         0.0625
     40 H14        -0.8665   -0.2760    0.0222 H         1 <0>         0.0683
     41 H15        -0.2936    1.9682   -0.8129 H         1 <0>         0.0771
     42 H16        -0.2163    1.9511    0.9595 H         1 <0>         0.0634
     43 H17         4.3822    1.4970   -0.2303 H         1 <0>         0.0716
     44 H18         4.4538    1.5636   -2.0085 H         1 <0>         0.0758
     45 H19         4.8907    3.9112   -1.3563 H         1 <0>         0.1041
     46 H20         0.4269    3.8584    1.6347 H         1 <0>         0.0771
     47 H21         2.1651    3.8325    2.0183 H         1 <0>         0.0659
     48 H22         0.7400    6.0520    0.4835 H         1 <0>         0.0800
     49 H23         1.1943    6.1269    2.2021 H         1 <0>         0.0728
     50 H24         2.5189    6.1182   -1.2916 H         1 <0>         0.0827
     51 H25         4.2229    5.9057   -0.8149 H         1 <0>         0.0725
     52 H26         3.5573   10.0875    1.9326 H         1 <0>         0.1001
     53 H27         5.2622    9.9448    1.4414 H         1 <0>         0.1012
     54 H28         3.9890   10.0885    0.2058 H         1 <0>         0.1001
     55 H29        -0.3589    3.6969   -0.6596 H         1 <0>         0.0648
     56 H30         0.6002    5.1323   -1.0932 H         1 <0>         0.0578
     57 H31         0.7862    3.6243   -2.0203 H         1 <0>         0.0564
     58 H32         0.4006    1.3404   -2.3566 H         1 <0>         0.0721
     59 H33         0.7717   -0.0908   -3.3476 H         1 <0>         0.0587
     60 H34        -0.7918    0.0272   -2.5051 H         1 <0>         0.0558
@<TRIPOS>BOND
     1    1    2 1
     2    1   32 1
     3    1   33 1
     4    1   34 1
     5    2    3 2
     6    2    4 1
     7    4    5 1
     8    4   10 1
     9    4    6 1
    10    6    7 1
    11    6   35 1
    12    6   36 1
    13    7    8 1
    14    7   37 1
    15    7   38 1
    16    8    9 1
    17    8   15 1
    18    8   10 1
    19   10   11 1
    20   10   31 1
    21   11   12 1
    22   11   39 1
    23   11   40 1
    24   12   13 1
    25   12   41 1
    26   12   42 1
    27   13   14 1
    28   13   20 1
    29   13   15 1
    30   15   16 1
    31   15   17 1
    32   17   18 1
    33   17   43 1
    34   17   44 1
    35   18   19 2
    36   18   45 1
    37   19   25 1
    38   19   20 1
    39   20   21 1
    40   20   30 1
    41   21   22 1
    42   21   46 1
    43   21   47 1
    44   22   23 1
    45   22   48 1
    46   22   49 1
    47   23   24 1
    48   23   25 1
    49   23   26 1
    50   25   50 1
    51   25   51 1
    52   26   27 1
    53   27   28 2
    54   27   29 1
    55   29   52 1
    56   29   53 1
    57   29   54 1
    58   30   55 1
    59   30   56 1
    60   30   57 1
    61   31   58 1
    62   31   59 1
    63   31   60 1
@<TRIPOS>MOLECULE
ZINC21821192
   26    27     0     0     0
SMALL
USER_CHARGES
(4-iodophenyl) 2-fluorobenzenesulfonate
@<TRIPOS>ATOM
      1 C1          5.3852   -2.0979   -3.1294 C.ar      1 <0>        -0.0272
      2 C2          4.4195   -1.1285   -3.3283 C.ar      1 <0>        -0.1500
      3 C3          3.1497   -1.2999   -2.8098 C.ar      1 <0>         0.0098
      4 C4          2.8472   -2.4355   -2.0821 C.ar      1 <0>        -0.7448
      5 C5          3.8133   -3.4067   -1.8824 C.ar      1 <0>         0.2041
      6 C6          5.0835   -3.2365   -2.4072 C.ar      1 <0>        -0.1741
      7 F1          3.5171   -4.5198   -1.1764 F         1 <0>        -0.1092
      8 S1          1.2306   -2.6502   -1.4151 S.o2      1 <0>         2.6760
      9 O1          1.0438   -4.0486   -1.2450 O.2       1 <0>        -0.9105
     10 O2          0.3566   -1.8553   -2.2047 O.2       1 <0>        -0.9420
     11 O3          1.2341   -2.0391   -0.0211 O.3       1 <0>        -0.6544
     12 C7          1.2133   -0.6802   -0.0132 C.ar      1 <0>         0.0794
     13 C8          0.0021   -0.0041    0.0020 C.ar      1 <0>        -0.0856
     14 C9         -0.0167    1.3772    0.0096 C.ar      1 <0>        -0.0658
     15 C10         1.1711    2.0860    0.0021 C.ar      1 <0>        -0.0890
     16 C11         2.3799    1.4139   -0.0130 C.ar      1 <0>        -0.0677
     17 C12         2.4034    0.0328   -0.0207 C.ar      1 <0>        -0.1171
     18 I1          1.1390    4.1808    0.0136 I         1 <0>        -0.0177
     19 H1          6.3756   -1.9651   -3.5391 H         1 <0>         0.1455
     20 H2          4.6562   -0.2389   -3.8930 H         1 <0>         0.1440
     21 H3          2.3949   -0.5442   -2.9695 H         1 <0>         0.1502
     22 H4          5.8379   -3.9937   -2.2523 H         1 <0>         0.1496
     23 H5         -0.9255   -0.5571    0.0082 H         1 <0>         0.1520
     24 H6         -0.9594    1.9040    0.0169 H         1 <0>         0.1489
     25 H7          3.3061    1.9694   -0.0189 H         1 <0>         0.1475
     26 H8          3.3475   -0.4916   -0.0321 H         1 <0>         0.1478
@<TRIPOS>BOND
     1    1    6 ar
     2    1    2 ar
     3    1   19 1
     4    2    3 ar
     5    2   20 1
     6    3    4 ar
     7    3   21 1
     8    4    5 ar
     9    4    8 1
    10    5    6 ar
    11    5    7 1
    12    6   22 1
    13    8    9 2
    14    8   10 2
    15    8   11 1
    16   11   12 1
    17   12   17 ar
    18   12   13 ar
    19   13   14 ar
    20   13   23 1
    21   14   15 ar
    22   14   24 1
    23   15   16 ar
    24   15   18 1
    25   16   17 ar
    26   16   25 1
    27   17   26 1
@<TRIPOS>MOLECULE
ZINC40018675
   45    48     0     0     0
SMALL
USER_CHARGES

@<TRIPOS>ATOM
      1 C1         -1.9950   -0.6896    1.0794 C.3       1 <0>        -0.1186
      2 C2         -1.5538   -2.0813    0.7059 C.ar      1 <0>        -0.0707
      3 C3         -1.2770   -2.3878   -0.6133 C.ar      1 <0>        -0.1278
      4 C4         -0.8723   -3.6644   -0.9560 C.ar      1 <0>        -0.0894
      5 C5         -0.7439   -4.6343    0.0206 C.ar      1 <0>        -0.1309
      6 C6         -1.0197   -4.3275    1.3399 C.ar      1 <0>        -0.0880
      7 C7         -1.4203   -3.0497    1.6832 C.ar      1 <0>        -0.1258
      8 C8         -0.3036   -6.0262   -0.3532 C.3       1 <0>         0.1267
      9 N1          1.1573   -6.1114   -0.2842 N.am      1 <0>        -0.5151
     10 C9          1.8727   -5.8247   -1.3588 C.2       1 <0>         0.5481
     11 O1          1.3487   -5.4913   -2.4056 O.2       1 <0>        -0.4574
     12 C10         3.3395   -5.9289   -1.2243 C.2       1 <0>        -0.2568
     13 C11         4.3112   -5.6994   -2.1439 C.2       1 <0>         0.1049
     14 C12         5.7039   -6.0565   -1.8452 C.ar      1 <0>        -0.1356
     15 C13         6.0122   -6.8028   -0.7008 C.ar      1 <0>        -0.0449
     16 C14         7.3162   -7.1386   -0.4260 C.ar      1 <0>        -0.1370
     17 C15         8.3452   -6.7404   -1.2813 C.ar      1 <0>         0.1461
     18 C16         8.0350   -5.9924   -2.4136 C.ar      1 <0>        -0.1804
     19 C17         6.7358   -5.6587   -2.7055 C.ar      1 <0>        -0.0209
     20 C18         9.3436   -5.6938   -3.1201 C.3       1 <0>        -0.1074
     21 C19        10.3823   -6.0272   -2.0233 C.3       1 <0>         0.0749
     22 H1         10.6401   -5.1355   -1.4519 H         1 <0>         0.0929
     23 O2          9.6830   -6.9752   -1.1995 O.3       1 <0>        -0.2939
     24 C20        11.6349   -6.6563   -2.6365 C.3       1 <0>        -0.1522
     25 S1          3.4837   -6.4405    0.4824 S.3       1 <0>         0.0769
     26 C21         1.7422   -6.4749    0.8753 C.2       1 <0>         0.2640
     27 S2          0.9956   -6.8754    2.3629 S.2       1 <0>        -0.3415
     28 H2         -1.1206   -0.0800    1.3071 H         1 <0>         0.0725
     29 H3         -2.5406   -0.2456    0.2468 H         1 <0>         0.0681
     30 H4         -2.6431   -0.7365    1.9546 H         1 <0>         0.0690
     31 H5         -1.3774   -1.6301   -1.3763 H         1 <0>         0.1241
     32 H6         -0.6568   -3.9041   -1.9868 H         1 <0>         0.1270
     33 H7         -0.9197   -5.0853    2.1029 H         1 <0>         0.1394
     34 H8         -1.6323   -2.8090    2.7145 H         1 <0>         0.1259
     35 H9         -0.7425   -6.7444    0.3395 H         1 <0>         0.1201
     36 H10        -0.6332   -6.2516   -1.3674 H         1 <0>         0.1118
     37 H11         4.0601   -5.2541   -3.0953 H         1 <0>         0.1642
     38 H12         5.2232   -7.1148   -0.0325 H         1 <0>         0.1381
     39 H13         7.5465   -7.7144    0.4582 H         1 <0>         0.1416
     40 H14         6.5101   -5.0871   -3.5936 H         1 <0>         0.1392
     41 H15         9.4735   -6.3394   -3.9887 H         1 <0>         0.0973
     42 H16         9.4016   -4.6433   -3.4052 H         1 <0>         0.0975
     43 H17        12.0825   -5.9588   -3.3445 H         1 <0>         0.0829
     44 H18        12.3516   -6.8825   -1.8469 H         1 <0>         0.0718
     45 H19        11.3631   -7.5759   -3.1548 H         1 <0>         0.0693
@<TRIPOS>BOND
     1    1    2 1
     2    1   28 1
     3    1   29 1
     4    1   30 1
     5    2    7 ar
     6    2    3 ar
     7    3    4 ar
     8    3   31 1
     9    4    5 ar
    10    4   32 1
    11    5    6 ar
    12    5    8 1
    13    6    7 ar
    14    6   33 1
    15    7   34 1
    16    8    9 1
    17    8   35 1
    18    8   36 1
    19    9   26 1
    20    9   10 am
    21   10   11 2
    22   10   12 1
    23   12   13 2
    24   12   25 1
    25   13   14 1
    26   13   37 1
    27   14   19 ar
    28   14   15 ar
    29   15   16 ar
    30   15   38 1
    31   16   17 ar
    32   16   39 1
    33   17   23 1
    34   17   18 ar
    35   18   19 ar
    36   18   20 1
    37   19   40 1
    38   20   21 1
    39   20   41 1
    40   20   42 1
    41   21   22 1
    42   21   23 1
    43   21   24 1
    44   24   43 1
    45   24   44 1
    46   24   45 1
    47   25   26 1
    48   26   27 2
@<TRIPOS>MOLECULE
ZINC49991661
   33    34     0     0     0
SMALL
USER_CHARGES

@<TRIPOS>ATOM
      1 C1         -0.0184    1.5028    0.0103 C.3       1 <0>        -0.1142
      2 C2          0.0021   -0.0041    0.0020 C.ar      1 <0>        -0.0581
      3 C3          0.0057   -0.6889   -1.1975 C.ar      1 <0>        -0.1117
      4 C4          0.0240   -2.0714   -1.2060 C.ar      1 <0>        -0.1019
      5 C5          0.0391   -2.7733   -0.0143 C.ar      1 <0>        -0.1175
      6 C6          0.0360   -2.0949    1.1884 C.ar      1 <0>        -0.1113
      7 C7          0.0230   -0.7057    1.2005 C.ar      1 <0>         0.1238
      8 N1          0.0251   -0.0163    2.4152 N.pl3     1 <0>        -0.9434
      9 C8          1.2918    0.2663    3.0949 C.3       1 <0>         0.0851
     10 S1         -1.4042    0.4817    3.0872 S.o2      1 <0>         2.6703
     11 O1         -1.0930    1.5752    3.9396 O.2       1 <0>        -0.9175
     12 O2         -2.3385    0.5880    2.0218 O.2       1 <0>        -0.9231
     13 C9         -1.9728   -0.8218    4.1275 C.ar      1 <0>        -0.7191
     14 C10        -2.7914   -1.8124    3.6114 C.ar      1 <0>         0.2424
     15 C11        -3.2379   -2.8362    4.4286 C.ar      1 <0>        -0.2006
     16 C12        -2.8659   -2.8692    5.7618 C.ar      1 <0>         0.1986
     17 C13        -2.0475   -1.8783    6.2764 C.ar      1 <0>        -0.1583
     18 C14        -1.5970   -0.8585    5.4577 C.ar      1 <0>         0.0430
     19 Br1        -0.4729    0.4904    6.1597 Br        1 <0>         0.0342
     20 F1         -3.3017   -3.8680    6.5604 F         1 <0>        -0.1098
     21 F2         -3.1543   -1.7792    2.3104 F         1 <0>        -0.0918
     22 H1          1.0042    1.8801    0.0026 H         1 <0>         0.0774
     23 H2         -0.5455    1.8639   -0.8728 H         1 <0>         0.0763
     24 H3         -0.5286    1.8543    0.9071 H         1 <0>         0.0547
     25 H4         -0.0060   -0.1439   -2.1298 H         1 <0>         0.1308
     26 H5          0.0261   -2.6044   -2.1453 H         1 <0>         0.1287
     27 H6          0.0529   -3.8531   -0.0245 H         1 <0>         0.1284
     28 H7          0.0474   -2.6436    2.1185 H         1 <0>         0.1227
     29 H8          1.6786    1.2279    2.7574 H         1 <0>         0.0704
     30 H9          1.1269    0.2988    4.1718 H         1 <0>         0.0778
     31 H10         2.0123   -0.5174    2.8611 H         1 <0>         0.0798
     32 H11        -3.8766   -3.6088    4.0267 H         1 <0>         0.1684
     33 H12        -1.7575   -1.9037    7.3165 H         1 <0>         0.1653
@<TRIPOS>BOND
     1    1    2 1
     2    1   22 1
     3    1   23 1
     4    1   24 1
     5    2    7 ar
     6    2    3 ar
     7    3    4 ar
     8    3   25 1
     9    4    5 ar
    10    4   26 1
    11    5    6 ar
    12    5   27 1
    13    6    7 ar
    14    6   28 1
    15    7    8 1
    16    8    9 1
    17    8   10 1
    18    9   29 1
    19    9   30 1
    20    9   31 1
    21   10   11 2
    22   10   12 2
    23   10   13 1
    24   13   18 ar
    25   13   14 ar
    26   14   15 ar
    27   14   21 1
    28   15   16 ar
    29   15   32 1
    30   16   17 ar
    31   16   20 1
    32   17   18 ar
    33   17   33 1
    34   18   19 1
@<TRIPOS>MOLECULE
ZINC00613689
   31    33     0     0     0
SMALL
USER_CHARGES
5-chloro-N-[4-(2,4-dimethylthiazol-5-yl)thiazol-2-yl]-pyridin-2-amine
@<TRIPOS>ATOM
      1 C1         -0.0148    1.0638    0.0130 C.3       1 <0>        -0.0812
      2 C2         -0.7205    1.5443    1.2548 C.2       1 <0>         0.0925
      3 C3         -2.0730    1.7682    1.2561 C.2       1 <0>        -0.1366
      4 S1         -2.3143    2.3011    2.9448 S.3       1 <0>         0.0640
      5 C4         -0.6589    2.1858    3.4563 C.2       1 <0>         0.0926
      6 N1         -0.0566    1.7666    2.3673 N.2       1 <0>        -0.5090
      7 C5         -0.0643    2.4898    4.8073 C.3       1 <0>        -0.0652
      8 C6         -3.0585    1.6106    0.1643 C.2       1 <0>         0.1719
      9 C7         -4.3797    1.8919    0.3792 C.2       1 <0>        -0.2522
     10 S2         -5.0639    1.5325   -1.2330 S.3       1 <0>         0.1411
     11 C8         -3.5363    1.0482   -2.0241 C.2       1 <0>         0.3370
     12 N2         -2.6688    1.1986   -1.0402 N.2       1 <0>        -0.5402
     13 N3         -3.3188    0.6301   -3.3284 N.pl3     1 <0>        -0.5878
     14 C9         -4.3976    0.4387   -4.1871 C.ar      1 <0>         0.3806
     15 C10        -4.1826   -0.0864   -5.4572 C.ar      1 <0>        -0.1892
     16 C11        -5.2632   -0.2719   -6.3004 C.ar      1 <0>        -0.0227
     17 C12        -6.5285    0.0755   -5.8427 C.ar      1 <0>        -0.1258
     18 C13        -6.6686    0.5920   -4.5691 C.ar      1 <0>         0.1683
     19 N4         -5.6192    0.7530   -3.7853 N.ar      1 <0>        -0.5125
     20 Cl1        -7.9185   -0.1377   -6.8606 Cl        1 <0>        -0.0461
     21 H1         -0.0015   -0.0261    0.0013 H         1 <0>         0.0703
     22 H2          1.0084    1.4396    0.0080 H         1 <0>         0.0658
     23 H3         -0.5407    1.4302   -0.8686 H         1 <0>         0.0958
     24 H4          0.2363    3.5368    4.8447 H         1 <0>         0.0928
     25 H5         -0.8060    2.2968    5.5824 H         1 <0>         0.0883
     26 H6          0.8067    1.8556    4.9719 H         1 <0>         0.0956
     27 H7         -4.8736    2.2362    1.2757 H         1 <0>         0.1947
     28 H8         -2.4149    0.4709   -3.6423 H         1 <0>         0.4366
     29 H9         -3.1853   -0.3453   -5.7807 H         1 <0>         0.1516
     30 H10        -5.1266   -0.6773   -7.2920 H         1 <0>         0.1545
     31 H11        -7.6498    0.8635   -4.2088 H         1 <0>         0.1747
@<TRIPOS>BOND
     1    1    2 1
     2    1   21 1
     3    1   22 1
     4    1   23 1
     5    2    6 1
     6    2    3 2
     7    3    4 1
     8    3    8 1
     9    4    5 1
    10    5    6 2
    11    5    7 1
    12    7   24 1
    13    7   25 1
    14    7   26 1
    15    8   12 1
    16    8    9 2
    17    9   10 1
    18    9   27 1
    19   10   11 1
    20   11   12 2
    21   11   13 1
    22   13   14 1
    23   13   28 1
    24   14   19 ar
    25   14   15 ar
    26   15   16 ar
    27   15   29 1
    28   16   17 ar
    29   16   30 1
    30   17   18 ar
    31   17   20 1
    32   18   19 ar
    33   18   31 1
@<TRIPOS>MOLECULE
ZINC10157172
   41    44     0     0     0
SMALL
USER_CHARGES
2-(m-tolyl)-4-(p-tolyl)-1H-pyrazolo[5,4-b]pyridin-3-one
@<TRIPOS>ATOM
      1 C1          7.5371   -2.6082   -0.0844 C.3       1 <0>        -0.1187
      2 C2          6.1993   -1.9146   -0.0684 C.ar      1 <0>        -0.0699
      3 C3          5.9340   -0.9084   -0.9800 C.ar      1 <0>        -0.1265
      4 C4          4.7112   -0.2691   -0.9696 C.ar      1 <0>        -0.0875
      5 C5          3.7418   -0.6394   -0.0380 C.ar      1 <0>        -0.0814
      6 C6          4.0169   -1.6511    0.8815 C.ar      1 <0>        -0.0602
      7 C7          5.2417   -2.2864    0.8582 C.ar      1 <0>        -0.1215
      8 C8          2.4271    0.0435   -0.0213 C.ar      1 <0>         0.1212
      9 C9          2.3386    1.4388   -0.0134 C.ar      1 <0>        -0.2196
     10 C10         1.0937    2.0346    0.0025 C.ar      1 <0>         0.1913
     11 N1         -0.0159    1.3199    0.0093 N.ar      1 <0>        -0.5214
     12 C11         0.0021   -0.0041    0.0020 C.ar      1 <0>         0.4102
     13 C12         1.2293   -0.6898   -0.0134 C.ar      1 <0>        -0.2756
     14 C13         0.9134   -2.1246   -0.0176 C.2       1 <0>         0.5655
     15 O1          1.7131   -3.0410   -0.0296 O.2       1 <0>        -0.4852
     16 N2         -0.4309   -2.2337   -0.0051 N.am      1 <0>        -0.3419
     17 N3         -0.9991   -0.9562    0.0069 N.pl3     1 <0>        -0.4942
     18 H1         -1.9505   -0.7673    0.0176 H         1 <0>         0.4476
     19 C14        -1.1447   -3.4363   -0.0038 C.ar      1 <0>         0.1675
     20 C15        -0.4664   -4.6484   -0.0218 C.ar      1 <0>        -0.1475
     21 C16        -1.1741   -5.8340   -0.0156 C.ar      1 <0>        -0.0799
     22 C17        -2.5570   -5.8156   -0.0017 C.ar      1 <0>        -0.1370
     23 C18        -3.2353   -4.6109    0.0109 C.ar      1 <0>        -0.0534
     24 C19        -2.5333   -3.4213    0.0097 C.ar      1 <0>        -0.1575
     25 C20        -4.7421   -4.5956    0.0256 C.3       1 <0>        -0.1172
     26 H2          8.2282   -2.0798    0.5723 H         1 <0>         0.0731
     27 H3          7.4185   -3.6345    0.2632 H         1 <0>         0.0682
     28 H4          7.9323   -2.6120   -1.1002 H         1 <0>         0.0680
     29 H5          6.6856   -0.6225   -1.7010 H         1 <0>         0.1263
     30 H6          4.5055    0.5168   -1.6813 H         1 <0>         0.1261
     31 H7          3.2717   -1.9391    1.6082 H         1 <0>         0.1208
     32 H8          5.4544   -3.0728    1.5672 H         1 <0>         0.1252
     33 H9          3.2337    2.0432   -0.0186 H         1 <0>         0.1502
     34 H10         1.0259    3.1125    0.0090 H         1 <0>         0.1753
     35 H11         0.6134   -4.6634   -0.0372 H         1 <0>         0.1578
     36 H12        -0.6473   -6.7768   -0.0262 H         1 <0>         0.1351
     37 H13        -3.1082   -6.7444   -0.0011 H         1 <0>         0.1290
     38 H14        -3.0637   -2.4806    0.0196 H         1 <0>         0.1222
     39 H15        -5.1154   -4.5871   -0.9985 H         1 <0>         0.0753
     40 H16        -5.1095   -5.4843    0.5389 H         1 <0>         0.0722
     41 H17        -5.0914   -3.7044    0.5470 H         1 <0>         0.0680
@<TRIPOS>BOND
     1    1    2 1
     2    1   26 1
     3    1   27 1
     4    1   28 1
     5    2    7 ar
     6    2    3 ar
     7    3    4 ar
     8    3   29 1
     9    4    5 ar
    10    4   30 1
    11    5    6 ar
    12    5    8 1
    13    6    7 ar
    14    6   31 1
    15    7   32 1
    16    8   13 ar
    17    8    9 ar
    18    9   10 ar
    19    9   33 1
    20   10   11 ar
    21   10   34 1
    22   11   12 ar
    23   12   17 1
    24   12   13 ar
    25   13   14 1
    26   14   15 2
    27   14   16 am
    28   16   17 1
    29   16   19 1
    30   17   18 1
    31   19   24 ar
    32   19   20 ar
    33   20   21 ar
    34   20   35 1
    35   21   22 ar
    36   21   36 1
    37   22   23 ar
    38   22   37 1
    39   23   24 ar
    40   23   25 1
    41   24   38 1
    42   25   39 1
    43   25   40 1
    44   25   41 1
@<TRIPOS>MOLECULE
ZINC27977620
   46    48     0     0     0
SMALL
USER_CHARGES
N-(4-methoxy-2-methyl-phenyl)-1,2,3-trimethyl-indole-5-carboxamide
@<TRIPOS>ATOM
      1 C1          2.2935    3.6524    1.2425 C.3       1 <0>        -0.1156
      2 C2          1.0830    3.0330    0.5927 C.ar      1 <0>        -0.0729
      3 C3         -0.1232    3.7056    0.5969 C.ar      1 <0>        -0.1357
      4 C4         -1.2375    3.1357   -0.0010 C.ar      1 <0>         0.1154
      5 C5         -1.1401    1.8916   -0.6076 C.ar      1 <0>        -0.1947
      6 C6          0.0638    1.2158   -0.6080 C.ar      1 <0>        -0.0781
      7 C7          1.1800    1.7860   -0.0099 C.ar      1 <0>         0.1132
      8 N1          2.4029    1.1036   -0.0149 N.am      1 <0>        -0.6782
      9 C8          2.4249   -0.2407    0.0794 C.2       1 <0>         0.5672
     10 O1          1.3826   -0.8668    0.0862 O.2       1 <0>        -0.5280
     11 C9          3.7145   -0.9529    0.1745 C.ar      1 <0>        -0.1704
     12 C10         4.9164   -0.2308    0.1608 C.ar      1 <0>        -0.0687
     13 C11         6.1149   -0.8737    0.2535 C.ar      1 <0>        -0.1311
     14 C12         6.1603   -2.2632    0.3511 C.ar      1 <0>         0.1222
     15 C13         4.9600   -3.0006    0.3605 C.ar      1 <0>        -0.1142
     16 C14         3.7366   -2.3410    0.2719 C.ar      1 <0>         0.0062
     17 C15         5.3509   -4.4088    0.4722 C.2       1 <0>        -0.1604
     18 C16         6.6916   -4.4392    0.5211 C.2       1 <0>         0.0737
     19 N2          7.1907   -3.1668    0.4500 N.pl3     1 <0>        -0.4786
     20 C17         8.6136   -2.8194    0.4763 C.3       1 <0>         0.0682
     21 C18         7.5247   -5.6897    0.6368 C.3       1 <0>        -0.0974
     22 C19         4.4241   -5.5960    0.5224 C.3       1 <0>        -0.0824
     23 O2         -2.4246    3.7986    0.0031 O.3       1 <0>        -0.3182
     24 C20        -3.5305    3.1528   -0.6309 C.3       1 <0>         0.0237
     25 H1          2.0231    4.6326    1.6621 H         1 <0>         0.0731
     26 H2          3.0871    3.7812    0.4917 H         1 <0>         0.0696
     27 H3          2.6538    2.9955    2.0479 H         1 <0>         0.0728
     28 H4         -0.1989    4.6756    1.0656 H         1 <0>         0.1338
     29 H5         -2.0071    1.4503   -1.0765 H         1 <0>         0.1303
     30 H6          0.1386    0.2459   -1.0772 H         1 <0>         0.1426
     31 H7          3.3455    1.6647   -0.0958 H         1 <0>         0.4280
     32 H8          4.8921    0.8459    0.0805 H         1 <0>         0.1263
     33 H9          7.0327   -0.3045    0.2460 H         1 <0>         0.1253
     34 H10         2.8135   -2.9015    0.2790 H         1 <0>         0.1370
     35 H11         9.2136   -3.7374    0.5610 H         1 <0>         0.0920
     36 H12         8.8161   -2.1681    1.3393 H         1 <0>         0.0768
     37 H13         8.8794   -2.2919   -0.4516 H         1 <0>         0.0768
     38 H14         8.5909   -5.4196    0.6553 H         1 <0>         0.0686
     39 H15         7.3269   -6.3431   -0.2257 H         1 <0>         0.0844
     40 H16         7.2644   -6.2191    1.5652 H         1 <0>         0.0844
     41 H17         5.0156   -6.5195    0.6074 H         1 <0>         0.0652
     42 H18         3.8215   -5.6298   -0.3972 H         1 <0>         0.0667
     43 H19         3.7588   -5.5052    1.3937 H         1 <0>         0.0667
     44 H20        -4.4215    3.7934   -0.5556 H         1 <0>         0.1016
     45 H21        -3.7273    2.1911   -0.1345 H         1 <0>         0.0566
     46 H22        -3.2939    2.9768   -1.6906 H         1 <0>         0.0563
@<TRIPOS>BOND
     1    1    2 1
     2    1   25 1
     3    1   26 1
     4    1   27 1
     5    2    7 ar
     6    2    3 ar
     7    3    4 ar
     8    3   28 1
     9    4    5 ar
    10    4   23 1
    11    5    6 ar
    12    5   29 1
    13    6    7 ar
    14    6   30 1
    15    7    8 1
    16    8    9 am
    17    8   31 1
    18    9   10 2
    19    9   11 1
    20   11   16 ar
    21   11   12 ar
    22   12   13 ar
    23   12   32 1
    24   13   14 ar
    25   13   33 1
    26   14   19 1
    27   14   15 ar
    28   15   16 ar
    29   15   17 1
    30   16   34 1
    31   17   18 2
    32   17   22 1
    33   18   19 1
    34   18   21 1
    35   19   20 1
    36   20   35 1
    37   20   36 1
    38   20   37 1
    39   21   38 1
    40   21   39 1
    41   21   40 1
    42   22   41 1
    43   22   42 1
    44   22   43 1
    45   23   24 1
    46   24   44 1
    47   24   45 1
    48   24   46 1
@<TRIPOS>MOLECULE
ZINC43763111
   46    48     0     0     0
SMALL
USER_CHARGES

@<TRIPOS>ATOM
      1 C1         -0.0802    1.5590    1.0103 C.3       1 <0>        -0.1260
      2 C2         -0.0273    0.0808    0.7217 C.ar      1 <0>        -0.0261
      3 C3          0.0662   -0.3658   -0.5831 C.ar      1 <0>        -0.1446
      4 C4          0.1148   -1.7217   -0.8478 C.ar      1 <0>        -0.0172
      5 C5          0.0704   -2.6310    0.1924 C.ar      1 <0>        -0.6741
      6 C6         -0.0222   -2.1844    1.4973 C.ar      1 <0>        -0.0017
      7 C7         -0.0665   -0.8284    1.7623 C.ar      1 <0>        -0.1439
      8 S1          0.1311   -4.3593   -0.1451 S.o2      1 <0>         2.7151
      9 O1         -0.4755   -5.0109    0.9625 O.2       1 <0>        -0.9422
     10 O2         -0.3334   -4.5296   -1.4771 O.2       1 <0>        -0.9518
     11 N1          1.7265   -4.8034   -0.1398 N.pl3     1 <0>        -0.9723
     12 N2          2.5004   -4.6218    1.0139 N.2       1 <0>        -0.2326
     13 C8          3.7014   -5.0629    1.0549 C.2       1 <0>         0.1324
     14 C9          4.2156   -5.8844   -0.0879 C.3       1 <0>        -0.0928
     15 C10         5.1189   -7.0000    0.4019 C.3       1 <0>        -0.1290
     16 H1          5.8151   -7.3777   -0.3469 H         1 <0>         0.1088
     17 C11         5.6339   -6.9950    1.8286 C.3       1 <0>        -0.1379
     18 H2          6.6527   -7.3504    1.9835 H         1 <0>         0.1071
     19 C12         4.6137   -8.0258    1.4040 C.3       1 <0>        -0.1254
     20 C13         3.1901   -7.8528    1.9373 C.3       1 <0>        -0.1282
     21 C14         5.0866   -9.4712    1.2368 C.3       1 <0>        -0.1163
     22 C15         5.1325   -6.0089    2.8685 C.3       1 <0>        -0.0845
     23 C16         4.5556   -4.7390    2.2401 C.3       1 <0>        -0.0319
     24 H3          5.3619   -4.0763    1.9256 H         1 <0>         0.0994
     25 C17         3.7026   -4.0199    3.2871 C.3       1 <0>        -0.1456
     26 H4          0.9326    1.9403    1.1403 H         1 <0>         0.0798
     27 H5         -0.5586    2.0748    0.1777 H         1 <0>         0.0732
     28 H6         -0.6530    1.7310    1.9216 H         1 <0>         0.0737
     29 H7          0.1009    0.3446   -1.3959 H         1 <0>         0.1326
     30 H8          0.1871   -2.0706   -1.8674 H         1 <0>         0.1385
     31 H9         -0.0573   -2.8948    2.3100 H         1 <0>         0.1423
     32 H10        -0.1350   -0.4794    2.7820 H         1 <0>         0.1335
     33 H11         2.1251   -5.1893   -0.9354 H         1 <0>         0.4012
     34 H12         3.3717   -6.3176   -0.6247 H         1 <0>         0.0813
     35 H13         4.7772   -5.2416   -0.7658 H         1 <0>         0.0964
     36 H14         2.5593   -8.6560    1.5563 H         1 <0>         0.0591
     37 H15         3.2035   -7.8869    3.0266 H         1 <0>         0.0639
     38 H16         2.7932   -6.8922    1.6087 H         1 <0>         0.0650
     39 H17         5.8645   -9.5130    0.4743 H         1 <0>         0.0569
     40 H18         5.4860   -9.8347    2.1836 H         1 <0>         0.0609
     41 H19         4.2464  -10.0956    0.9332 H         1 <0>         0.0600
     42 H20         4.3890   -6.5050    3.4924 H         1 <0>         0.0802
     43 H21         5.9696   -5.7069    3.4979 H         1 <0>         0.0751
     44 H22         2.8803   -4.6669    3.5924 H         1 <0>         0.0638
     45 H23         4.3177   -3.7801    4.1544 H         1 <0>         0.0604
     46 H24         3.3022   -3.1003    2.8602 H         1 <0>         0.0632
@<TRIPOS>BOND
     1    1    2 1
     2    1   26 1
     3    1   27 1
     4    1   28 1
     5    2    7 ar
     6    2    3 ar
     7    3    4 ar
     8    3   29 1
     9    4    5 ar
    10    4   30 1
    11    5    6 ar
    12    5    8 1
    13    6    7 ar
    14    6   31 1
    15    7   32 1
    16    8    9 2
    17    8   10 2
    18    8   11 1
    19   11   12 1
    20   11   33 1
    21   12   13 2
    22   13   23 1
    23   13   14 1
    24   14   15 1
    25   14   34 1
    26   14   35 1
    27   15   16 1
    28   15   19 1
    29   15   17 1
    30   17   18 1
    31   17   19 1
    32   17   22 1
    33   19   20 1
    34   19   21 1
    35   20   36 1
    36   20   37 1
    37   20   38 1
    38   21   39 1
    39   21   40 1
    40   21   41 1
    41   22   23 1
    42   22   42 1
    43   22   43 1
    44   23   24 1
    45   23   25 1
    46   25   44 1
    47   25   45 1
    48   25   46 1
@<TRIPOS>MOLECULE
ZINC06140415
   30    33     0     0     0
SMALL
USER_CHARGES

@<TRIPOS>ATOM
      1 C1         -0.0166    1.3741    0.0096 C.ar      1 <0>        -0.1371
      2 C2          1.1715    2.0884    0.0021 C.ar      1 <0>        -0.0668
      3 C3          2.3837    1.4323   -0.0134 C.ar      1 <0>        -0.1307
      4 C4          2.4234    0.0420   -0.0217 C.ar      1 <0>         0.1521
      5 C5          1.2201   -0.6798   -0.0136 C.ar      1 <0>        -0.0849
      6 C6          0.0021   -0.0041    0.0020 C.ar      1 <0>        -0.0407
      7 C7          1.5906   -2.1055   -0.0254 C.ar      1 <0>         0.0043
      8 C8          3.0002   -2.1484   -0.0400 C.ar      1 <0>         0.3717
      9 N1          3.4749   -0.8602   -0.0375 N.pl3     1 <0>        -0.5809
     10 H1          4.4137   -0.6161   -0.0456 H         1 <0>         0.4314
     11 N2          3.5955   -3.3370   -0.0524 N.ar      1 <0>        -0.4821
     12 C9          2.8514   -4.4353   -0.0507 C.ar      1 <0>         0.2612
     13 N3          1.5240   -4.3692   -0.0369 N.ar      1 <0>        -0.3023
     14 N4          0.9046   -3.2388   -0.0253 N.ar      1 <0>        -0.1257
     15 S1          3.6379   -6.0120   -0.0678 S.3       1 <0>         0.0498
     16 C10         2.2588   -7.1904   -0.0599 C.3       1 <0>        -0.0936
     17 C11         2.8081   -8.6184   -0.0736 C.3       1 <0>        -0.1091
     18 H2          3.7713   -8.7468   -0.5675 H         1 <0>         0.1410
     19 C12         2.5143   -9.5000    1.1418 C.3       1 <0>        -0.1327
     20 C13         1.7986   -9.7626   -0.1856 C.3       1 <0>         0.0075
     21 Cl1         2.2935  -11.2205   -1.1239 Cl        1 <0>        -0.0838
     22 Cl2         0.0527   -9.3250   -0.2913 Cl        1 <0>        -0.0802
     23 H3         -0.9602    1.8993    0.0259 H         1 <0>         0.1378
     24 H4          1.1471    3.1682    0.0081 H         1 <0>         0.1398
     25 H5          3.3035    1.9983   -0.0195 H         1 <0>         0.1361
     26 H6         -0.9248   -0.5584    0.0079 H         1 <0>         0.1384
     27 H7          1.6582   -7.0408    0.8373 H         1 <0>         0.1097
     28 H8          1.6395   -7.0309   -0.9425 H         1 <0>         0.1140
     29 H9          3.2840  -10.2088    1.4473 H         1 <0>         0.1288
     30 H10         1.9296   -9.0628    1.9512 H         1 <0>         0.1269
@<TRIPOS>BOND
     1    1    6 ar
     2    1    2 ar
     3    1   23 1
     4    2    3 ar
     5    2   24 1
     6    3    4 ar
     7    3   25 1
     8    4    9 1
     9    4    5 ar
    10    5    6 ar
    11    5    7 1
    12    6   26 1
    13    7   14 ar
    14    7    8 ar
    15    8    9 1
    16    8   11 ar
    17    9   10 1
    18   11   12 ar
    19   12   13 ar
    20   12   15 1
    21   13   14 ar
    22   15   16 1
    23   16   17 1
    24   16   27 1
    25   16   28 1
    26   17   18 1
    27   17   20 1
    28   17   19 1
    29   19   20 1
    30   19   29 1
    31   19   30 1
    32   20   21 1
    33   20   22 1
@<TRIPOS>MOLECULE
ZINC04356710
   38    39     0     0     0
SMALL
USER_CHARGES
4-allyl-3-benzylsulfanyl-5-isopropyl-1,2,4-triazole
@<TRIPOS>ATOM
      1 C1          3.1868    2.4542   -1.2633 C.3       1 <0>        -0.1432
      2 C2          2.5115    1.8926   -0.0105 C.3       1 <0>        -0.0054
      3 C3          3.2091    2.4427    1.2350 C.3       1 <0>        -0.1421
      4 C4          1.0610    2.3013    0.0043 C.2       1 <0>         0.1935
      5 N1          0.6026    3.5209    0.0144 N.2       1 <0>        -0.2789
      6 N2         -0.6826    3.5091    0.0261 N.2       1 <0>        -0.2915
      7 C5         -1.1172    2.2703    0.0189 C.2       1 <0>         0.1535
      8 N3         -0.0178    1.4608    0.0101 N.pl3     1 <0>        -0.4585
      9 C6          0.0021   -0.0041    0.0020 C.3       1 <0>         0.1332
     10 C7          0.0225   -0.5140    1.4200 C.2       1 <0>        -0.1918
     11 C8         -0.8916   -1.3605    1.8248 C.2       1 <0>        -0.1445
     12 S1         -2.8009    1.7507    0.0232 S.3       1 <0>         0.0052
     13 C9         -3.6268    3.3612    0.0351 C.3       1 <0>        -0.0588
     14 C10        -5.1203    3.1598    0.0403 C.ar      1 <0>        -0.0848
     15 C11        -5.8110    3.0794   -1.1544 C.ar      1 <0>        -0.0987
     16 C12        -7.1802    2.8894   -1.1497 C.ar      1 <0>        -0.1197
     17 C13        -7.8602    2.7907    0.0498 C.ar      1 <0>        -0.1099
     18 C14        -7.1703    2.8768    1.2445 C.ar      1 <0>        -0.1196
     19 C15        -5.8003    3.0612    1.2398 C.ar      1 <0>        -0.0984
     20 H1          3.1158    3.5419   -1.2577 H         1 <0>         0.0704
     21 H2          4.2359    2.1586   -1.2740 H         1 <0>         0.0701
     22 H3          2.6898    2.0622   -2.1507 H         1 <0>         0.0551
     23 H4          2.5824    0.8049   -0.0162 H         1 <0>         0.0857
     24 H5          2.7280    2.0426    2.1275 H         1 <0>         0.0546
     25 H6          4.2582    2.1471    1.2243 H         1 <0>         0.0700
     26 H7          3.1382    3.5304    1.2407 H         1 <0>         0.0702
     27 H8         -0.8878   -0.3767   -0.5053 H         1 <0>         0.1025
     28 H9          0.8920   -0.3525   -0.5222 H         1 <0>         0.1080
     29 H10         0.7907   -0.1815    2.1024 H         1 <0>         0.1176
     30 H11        -0.8770   -1.7260    2.8410 H         1 <0>         0.1097
     31 H12        -1.6598   -1.6930    1.1424 H         1 <0>         0.1040
     32 H13        -3.3317    3.9143    0.9268 H         1 <0>         0.1064
     33 H14        -3.3391    3.9237   -0.8532 H         1 <0>         0.1063
     34 H15        -5.2804    3.1609   -2.0915 H         1 <0>         0.1261
     35 H16        -7.7193    2.8217   -2.0832 H         1 <0>         0.1263
     36 H17        -8.9305    2.6460    0.0535 H         1 <0>         0.1250
     37 H18        -7.7015    2.7998    2.1816 H         1 <0>         0.1263
     38 H19        -5.2612    3.1285    2.1732 H         1 <0>         0.1260
@<TRIPOS>BOND
     1    1    2 1
     2    1   20 1
     3    1   21 1
     4    1   22 1
     5    2    3 1
     6    2    4 1
     7    2   23 1
     8    3   24 1
     9    3   25 1
    10    3   26 1
    11    4    8 1
    12    4    5 2
    13    5    6 1
    14    6    7 2
    15    7    8 1
    16    7   12 1
    17    8    9 1
    18    9   10 1
    19    9   27 1
    20    9   28 1
    21   10   11 2
    22   10   29 1
    23   11   30 1
    24   11   31 1
    25   12   13 1
    26   13   14 1
    27   13   32 1
    28   13   33 1
    29   14   19 ar
    30   14   15 ar
    31   15   16 ar
    32   15   34 1
    33   16   17 ar
    34   16   35 1
    35   17   18 ar
    36   17   36 1
    37   18   19 ar
    38   18   37 1
    39   19   38 1
@<TRIPOS>MOLECULE
ZINC01617201
   39    40     0     0     0
SMALL
USER_CHARGES
3-chloro-2-(4-ethoxyphenyl)-3-(4-methoxyphenyl)-prop-2-enal
@<TRIPOS>ATOM
      1 C1         -1.3808   15.6324    2.2474 C.3       1 <0>        -0.1533
      2 C2         -1.6152   14.1517    1.9418 C.3       1 <0>         0.0535
      3 O1         -0.3703   13.4520    1.9923 O.3       1 <0>        -0.3153
      4 C3         -0.4025   12.1165    1.7425 C.ar      1 <0>         0.1396
      5 C4          0.7722   11.3773    1.7756 C.ar      1 <0>        -0.1524
      6 C5          0.7431   10.0219    1.5226 C.ar      1 <0>        -0.0462
      7 C6         -0.4681    9.3941    1.2331 C.ar      1 <0>        -0.0855
      8 C7         -1.6454   10.1407    1.1955 C.ar      1 <0>        -0.0530
      9 C8         -1.6098   11.4948    1.4543 C.ar      1 <0>        -0.2095
     10 C9         -0.5032    7.9378    0.9602 C.2       1 <0>        -0.1641
     11 C10        -1.1702    7.0913    1.8198 C.2       1 <0>         0.0724
     12 C11        -1.0965    5.6397    1.6235 C.ar      1 <0>        -0.1305
     13 C12        -2.2670    4.8690    1.6271 C.ar      1 <0>        -0.0386
     14 C13        -2.1916    3.5075    1.4429 C.ar      1 <0>        -0.1516
     15 C14        -0.9571    2.8960    1.2530 C.ar      1 <0>         0.1552
     16 C15         0.2083    3.6549    1.2541 C.ar      1 <0>        -0.2105
     17 C16         0.1448    5.0179    1.4320 C.ar      1 <0>        -0.0456
     18 O2         -0.8888    1.5528    1.0713 O.3       1 <0>        -0.3109
     19 C17         0.4105    0.9889    0.8818 C.3       1 <0>         0.0228
     20 Cl1        -2.0975    7.7434    3.1345 Cl        1 <0>        -0.0372
     21 C18         0.1484    7.4161   -0.1834 C.2       1 <0>         0.3689
     22 O3          0.7669    8.1567   -0.9207 O.2       1 <0>        -0.4424
     23 H1         -2.3305   16.1661    2.2088 H         1 <0>         0.0793
     24 H2         -0.9471   15.7339    3.2422 H         1 <0>         0.0668
     25 H3         -0.6979   16.0522    1.5088 H         1 <0>         0.0670
     26 H4         -2.0489   14.0502    0.9470 H         1 <0>         0.0628
     27 H5         -2.2981   13.7319    2.6804 H         1 <0>         0.0626
     28 H6          1.7097   11.8640    2.0001 H         1 <0>         0.1335
     29 H7          1.6572    9.4474    1.5488 H         1 <0>         0.1279
     30 H8         -2.5844    9.6584    0.9673 H         1 <0>         0.1243
     31 H9         -2.5217   12.0729    1.4290 H         1 <0>         0.1298
     32 H10        -3.2262    5.3428    1.7745 H         1 <0>         0.1392
     33 H11        -3.0930    2.9126    1.4455 H         1 <0>         0.1411
     34 H12         1.1647    3.1741    1.1105 H         1 <0>         0.1390
     35 H13         1.0500    5.6069    1.4280 H         1 <0>         0.1333
     36 H14         0.3227   -0.0893    0.7487 H         1 <0>         0.1050
     37 H15         1.0282    1.1981    1.7551 H         1 <0>         0.0599
     38 H16         0.8715    1.4279   -0.0030 H         1 <0>         0.0603
     39 H17         0.0955    6.3593   -0.4000 H         1 <0>         0.1021
@<TRIPOS>BOND
     1    1    2 1
     2    1   23 1
     3    1   24 1
     4    1   25 1
     5    2    3 1
     6    2   26 1
     7    2   27 1
     8    3    4 1
     9    4    9 ar
    10    4    5 ar
    11    5    6 ar
    12    5   28 1
    13    6    7 ar
    14    6   29 1
    15    7    8 ar
    16    7   10 1
    17    8    9 ar
    18    8   30 1
    19    9   31 1
    20   10   11 2
    21   10   21 1
    22   11   12 1
    23   11   20 1
    24   12   17 ar
    25   12   13 ar
    26   13   14 ar
    27   13   32 1
    28   14   15 ar
    29   14   33 1
    30   15   16 ar
    31   15   18 1
    32   16   17 ar
    33   16   34 1
    34   17   35 1
    35   18   19 1
    36   19   36 1
    37   19   37 1
    38   19   38 1
    39   21   22 2
    40   21   39 1
@<TRIPOS>MOLECULE
ZINC04417039
   48    49     0     0     0
SMALL
USER_CHARGES

@<TRIPOS>ATOM
      1 C1         -2.3195   -6.5560    3.6059 C.3       1 <0>        -0.1146
      2 C2         -0.9664   -5.9189    3.7913 C.2       1 <0>        -0.0463
      3 C3          0.1002   -6.5389    4.2754 C.2       1 <0>        -0.1874
      4 C4          1.2670   -5.6655    4.3368 C.2       1 <0>         0.3981
      5 O1          2.3712   -5.9707    4.7364 O.2       1 <0>        -0.4314
      6 C5          0.8489   -4.3090    3.8109 C.3       1 <0>        -0.1965
      7 C6         -0.6352   -4.4887    3.4458 C.3       1 <0>         0.1094
      8 H1         -0.7873   -4.3134    2.3808 H         1 <0>         0.1118
      9 O2         -1.4424   -3.5949    4.2149 O.3       1 <0>        -0.3288
     10 C7         -1.7453   -2.4129    3.6556 C.2       1 <0>         0.4962
     11 O3         -1.3384   -2.1459    2.5497 O.2       1 <0>        -0.4912
     12 C8         -2.5926   -1.4188    4.4071 C.3       1 <0>        -0.1568
     13 H2         -3.6700   -1.5622    4.3248 H         1 <0>         0.1461
     14 C9         -2.0767    0.0183    4.5046 C.3       1 <0>        -0.0800
     15 H3         -2.8146    0.8203    4.4867 H         1 <0>         0.1267
     16 C10        -2.0499   -0.8900    5.7364 C.3       1 <0>        -0.0877
     17 C11        -3.0611   -0.6026    6.8480 C.3       1 <0>        -0.1186
     18 C12        -0.6885   -1.4111    6.2009 C.3       1 <0>        -0.1259
     19 C13        -0.7602    0.3315    3.8412 C.2       1 <0>        -0.1437
     20 C14        -0.3533    1.5731    3.7468 C.2       1 <0>        -0.1169
     21 C15        -1.2017    2.6883    4.3015 C.3       1 <0>        -0.1226
     22 C16         0.9631    1.8862    3.0835 C.3       1 <0>        -0.1186
     23 C17         0.1068   -7.9809    4.7130 C.3       1 <0>        -0.0410
     24 C18         0.5930   -8.8474    3.5799 C.2       1 <0>        -0.1576
     25 C19         1.6068   -9.6567    3.7627 C.2       1 <0>        -0.1795
     26 H4         -2.3787   -7.0006    2.6125 H         1 <0>         0.0850
     27 H5         -2.4629   -7.3302    4.3596 H         1 <0>         0.0820
     28 H6         -3.0956   -5.7979    3.7115 H         1 <0>         0.0771
     29 H7          0.9661   -3.5479    4.5824 H         1 <0>         0.1164
     30 H8          1.4277   -4.0481    2.9249 H         1 <0>         0.1175
     31 H9         -2.9276   -1.3224    7.6556 H         1 <0>         0.0679
     32 H10        -2.9037    0.4059    7.2305 H         1 <0>         0.0673
     33 H11        -4.0723   -0.6865    6.4500 H         1 <0>         0.0619
     34 H12         0.0488   -1.2534    5.4137 H         1 <0>         0.0582
     35 H13        -0.3814   -0.8750    7.0989 H         1 <0>         0.0691
     36 H14        -0.7628   -2.4760    6.4210 H         1 <0>         0.0701
     37 H15        -0.1523   -0.4678    3.4437 H         1 <0>         0.1141
     38 H16        -0.9289    2.8696    5.3411 H         1 <0>         0.0689
     39 H17        -1.0364    3.5947    3.7191 H         1 <0>         0.0623
     40 H18        -2.2533    2.4071    4.2455 H         1 <0>         0.0663
     41 H19         1.4302    0.9603    2.7479 H         1 <0>         0.0602
     42 H20         0.7923    2.5382    2.2268 H         1 <0>         0.0676
     43 H21         1.6190    2.3866    3.7959 H         1 <0>         0.0669
     44 H22         0.7701   -8.0975    5.5700 H         1 <0>         0.0826
     45 H23        -0.9034   -8.2806    4.9920 H         1 <0>         0.0877
     46 H24         0.1056   -8.8013    2.6173 H         1 <0>         0.1092
     47 H25         2.0943   -9.7028    4.7253 H         1 <0>         0.0986
     48 H26         1.9553  -10.2777    2.9506 H         1 <0>         0.0996
@<TRIPOS>BOND
     1    1    2 1
     2    1   26 1
     3    1   27 1
     4    1   28 1
     5    2    7 1
     6    2    3 2
     7    3    4 1
     8    3   23 1
     9    4    5 2
    10    4    6 1
    11    6    7 1
    12    6   29 1
    13    6   30 1
    14    7    8 1
    15    7    9 1
    16    9   10 1
    17   10   11 2
    18   10   12 1
    19   12   13 1
    20   12   16 1
    21   12   14 1
    22   14   15 1
    23   14   16 1
    24   14   19 1
    25   16   17 1
    26   16   18 1
    27   17   31 1
    28   17   32 1
    29   17   33 1
    30   18   34 1
    31   18   35 1
    32   18   36 1
    33   19   20 2
    34   19   37 1
    35   20   21 1
    36   20   22 1
    37   21   38 1
    38   21   39 1
    39   21   40 1
    40   22   41 1
    41   22   42 1
    42   22   43 1
    43   23   24 1
    44   23   44 1
    45   23   45 1
    46   24   25 2
    47   24   46 1
    48   25   47 1
    49   25   48 1
@<TRIPOS>MOLECULE
ZINC44827325
   49    48     0     0     0
SMALL
USER_CHARGES

@<TRIPOS>ATOM
      1 C1          0.5499    1.7556   -1.2176 C.3       1 <0>        -0.1511
      2 C2          0.6918    0.2384   -1.0802 C.3       1 <0>        -0.1306
      3 C3         -0.6208   -0.3516   -0.5607 C.3       1 <0>        -0.1257
      4 C4         -0.4789   -1.8688   -0.4232 C.3       1 <0>         0.0232
      5 C5          0.6485   -2.1885    0.5604 C.3       1 <0>        -0.0976
      6 C6          0.3215   -1.5811    1.9260 C.3       1 <0>        -0.1306
      7 C7          1.4490   -1.9008    2.9096 C.3       1 <0>        -0.1517
      8 C8         -1.7418   -2.4364    0.0766 C.1       1 <0>         0.2120
      9 N1         -2.7164   -2.8744    0.4623 N.1       1 <0>        -0.4061
     10 C9         -0.1568   -2.4671   -1.7683 C.2       1 <0>         0.5339
     11 O1          0.8813   -3.0730   -1.9296 O.2       1 <0>        -0.5150
     12 N2         -1.0224   -2.3288   -2.7921 N.am      1 <0>        -0.5995
     13 C10        -2.2232   -1.5054   -2.6299 C.3       1 <0>         0.0603
     14 C11        -0.7625   -3.0019   -4.0671 C.3       1 <0>         0.1455
     15 H1          0.1043   -3.6545   -3.9633 H         1 <0>         0.1037
     16 C12        -1.9836   -3.8348   -4.4623 C.3       1 <0>        -0.1699
     17 C13        -0.4868   -1.9559   -5.1491 C.3       1 <0>        -0.0759
     18 C14         0.6317   -1.0220   -4.6823 C.3       1 <0>        -0.1413
     19 C15        -0.0598   -2.6576   -6.4399 C.3       1 <0>        -0.1422
     20 C16        -1.7564   -1.1420   -5.4070 C.3       1 <0>        -0.1596
     21 H2          1.4851    2.1759   -1.5877 H         1 <0>         0.0589
     22 H3         -0.2533    1.9834   -1.9184 H         1 <0>         0.0543
     23 H4          0.3170    2.1884   -0.2447 H         1 <0>         0.0570
     24 H5          0.9248   -0.1943   -2.0531 H         1 <0>         0.0696
     25 H6          1.4950    0.0106   -0.3794 H         1 <0>         0.0751
     26 H7         -0.8538    0.0812    0.4122 H         1 <0>         0.0894
     27 H8         -1.4240   -0.1238   -1.2614 H         1 <0>         0.0871
     28 H9          0.7496   -3.2694    0.6583 H         1 <0>         0.0793
     29 H10         1.5837   -1.7682    0.1903 H         1 <0>         0.0966
     30 H11         0.2205   -0.5002    1.8281 H         1 <0>         0.0718
     31 H12        -0.6136   -2.0014    2.2961 H         1 <0>         0.0595
     32 H13         1.2161   -1.4681    3.8825 H         1 <0>         0.0571
     33 H14         1.5501   -2.9817    3.0075 H         1 <0>         0.0556
     34 H15         2.3842   -1.4805    2.5395 H         1 <0>         0.0585
     35 H16        -1.9809   -0.4639   -2.8413 H         1 <0>         0.0722
     36 H17        -2.9938   -1.8466   -3.3211 H         1 <0>         0.0835
     37 H18        -2.5884   -1.5930   -1.6066 H         1 <0>         0.0667
     38 H19        -1.7902   -4.3356   -5.4109 H         1 <0>         0.0751
     39 H20        -2.1801   -4.5800   -3.6915 H         1 <0>         0.0586
     40 H21        -2.8504   -3.1821   -4.5661 H         1 <0>         0.0664
     41 H22         1.5362   -1.6018   -4.4986 H         1 <0>         0.0575
     42 H23         0.8282   -0.2768   -5.4532 H         1 <0>         0.0548
     43 H24         0.3275   -0.5220   -3.7628 H         1 <0>         0.0570
     44 H25        -0.8566   -3.3230   -6.7724 H         1 <0>         0.0587
     45 H26         0.1367   -1.9124   -7.2107 H         1 <0>         0.0593
     46 H27         0.8447   -3.2375   -6.2561 H         1 <0>         0.0577
     47 H28        -1.9629   -0.5078   -4.5449 H         1 <0>         0.0632
     48 H29        -1.6156   -0.5194   -6.2906 H         1 <0>         0.0564
     49 H30        -2.5952   -1.8189   -5.5694 H         1 <0>         0.0612
@<TRIPOS>BOND
     1    1    2 1
     2    1   21 1
     3    1   22 1
     4    1   23 1
     5    2    3 1
     6    2   24 1
     7    2   25 1
     8    3    4 1
     9    3   26 1
    10    3   27 1
    11    4    5 1
    12    4    8 1
    13    4   10 1
    14    5    6 1
    15    5   28 1
    16    5   29 1
    17    6    7 1
    18    6   30 1
    19    6   31 1
    20    7   32 1
    21    7   33 1
    22    7   34 1
    23    8    9 3
    24   10   11 2
    25   10   12 am
    26   12   13 1
    27   12   14 1
    28   13   35 1
    29   13   36 1
    30   13   37 1
    31   14   15 1
    32   14   16 1
    33   14   17 1
    34   16   38 1
    35   16   39 1
    36   16   40 1
    37   17   18 1
    38   17   19 1
    39   17   20 1
    40   18   41 1
    41   18   42 1
    42   18   43 1
    43   19   44 1
    44   19   45 1
    45   19   46 1
    46   20   47 1
    47   20   48 1
    48   20   49 1
@<TRIPOS>MOLECULE
ZINC57692604
   43    44     0     0     0
SMALL
USER_CHARGES

@<TRIPOS>ATOM
      1 C1         -0.0184    1.5028    0.0103 C.3       1 <0>        -0.1112
      2 C2          0.0021   -0.0041    0.0020 C.ar      1 <0>        -0.0984
      3 C3          0.0057   -0.6888   -1.1978 C.ar      1 <0>        -0.1156
      4 C4          0.0244   -2.0713   -1.2061 C.ar      1 <0>        -0.1157
      5 C5          0.0395   -2.7720   -0.0142 C.ar      1 <0>        -0.1155
      6 C6          0.0359   -2.0919    1.1883 C.ar      1 <0>        -0.0984
      7 C7          0.0230   -0.7047    1.1992 C.ar      1 <0>         0.0909
      8 O1          0.0255   -0.0333    2.3808 O.3       1 <0>        -0.3296
      9 C8         -1.2463    0.2703    2.9572 C.3       1 <0>         0.0649
     10 C9         -1.0431    1.0223    4.2740 C.3       1 <0>        -0.1247
     11 C10        -2.4048    1.3474    4.8912 C.3       1 <0>        -0.1081
     12 C11        -2.2015    2.0995    6.2080 C.3       1 <0>         0.0515
     13 H1         -1.5828    2.9794    6.0321 H         1 <0>         0.1293
     14 C12        -1.5346    1.2169    7.1791 C.1       1 <0>         0.2041
     15 N1         -1.0199    0.5358    7.9286 N.1       1 <0>        -0.4145
     16 C13        -3.5395    2.5270    6.7540 C.ar      1 <0>        -0.0604
     17 C14        -4.4945    1.5740    7.0606 C.ar      1 <0>        -0.1062
     18 C15        -5.7213    1.9584    7.5607 C.ar      1 <0>        -0.0665
     19 C16        -5.9980    3.3128    7.7579 C.ar      1 <0>        -0.0196
     20 C17        -5.0294    4.2692    7.4468 C.ar      1 <0>        -0.0671
     21 C18        -3.8050    3.8705    6.9518 C.ar      1 <0>        -0.1022
     22 C19        -7.2695    3.7191    8.2763 C.1       1 <0>         0.2474
     23 N2         -8.2782    4.0414    8.6875 N.1       1 <0>        -0.4070
     24 C20         0.0523   -2.8562    2.4870 C.3       1 <0>        -0.1118
     25 H2          1.0042    1.8801    0.0026 H         1 <0>         0.0735
     26 H3         -0.5455    1.8639   -0.8728 H         1 <0>         0.0665
     27 H4         -0.5286    1.8543    0.9071 H         1 <0>         0.0674
     28 H5         -0.0064   -0.1438   -2.1301 H         1 <0>         0.1264
     29 H6          0.0269   -2.6048   -2.1451 H         1 <0>         0.1257
     30 H7          0.0538   -3.8518   -0.0233 H         1 <0>         0.1261
     31 H8         -1.8183    0.8920    2.2684 H         1 <0>         0.0572
     32 H9         -1.7893   -0.6554    3.1476 H         1 <0>         0.0543
     33 H10        -0.4711    0.4007    4.9629 H         1 <0>         0.0738
     34 H11        -0.5001    1.9481    4.0837 H         1 <0>         0.0821
     35 H12        -2.9768    1.9691    4.2023 H         1 <0>         0.0944
     36 H13        -2.9478    0.4217    5.0815 H         1 <0>         0.0794
     37 H14        -4.2792    0.5268    6.9076 H         1 <0>         0.1344
     38 H15        -6.4662    1.2135    7.7989 H         1 <0>         0.1368
     39 H16        -5.2369    5.3184    7.5968 H         1 <0>         0.1384
     40 H17        -3.0534    4.6088    6.7146 H         1 <0>         0.1416
     41 H18         1.0838   -3.0266    2.7953 H         1 <0>         0.0736
     42 H19        -0.4658   -2.2805    3.2539 H         1 <0>         0.0663
     43 H20        -0.4492   -3.8144    2.3510 H         1 <0>         0.0665
@<TRIPOS>BOND
     1    1    2 1
     2    1   25 1
     3    1   26 1
     4    1   27 1
     5    2    7 ar
     6    2    3 ar
     7    3    4 ar
     8    3   28 1
     9    4    5 ar
    10    4   29 1
    11    5    6 ar
    12    5   30 1
    13    6    7 ar
    14    6   24 1
    15    7    8 1
    16    8    9 1
    17    9   10 1
    18    9   31 1
    19    9   32 1
    20   10   11 1
    21   10   33 1
    22   10   34 1
    23   11   12 1
    24   11   35 1
    25   11   36 1
    26   12   13 1
    27   12   14 1
    28   12   16 1
    29   14   15 3
    30   16   21 ar
    31   16   17 ar
    32   17   18 ar
    33   17   37 1
    34   18   19 ar
    35   18   38 1
    36   19   20 ar
    37   19   22 1
    38   20   21 ar
    39   20   39 1
    40   21   40 1
    41   22   23 3
    42   24   41 1
    43   24   42 1
    44   24   43 1
@<TRIPOS>MOLECULE
ZINC11733711
   44    45     0     0     0
SMALL
USER_CHARGES
(2S)-2-(4-fluorophenyl)-3-(4-isopropylphenyl)-2-methyl-propan-1-ol
@<TRIPOS>ATOM
      1 C1         -1.7015    3.1268    5.8918 C.3       1 <0>        -0.1448
      2 C2         -2.7180    2.9497    4.7620 C.3       1 <0>        -0.0585
      3 C3         -3.3948    4.2905    4.4702 C.3       1 <0>        -0.1444
      4 C4         -2.0119    2.4633    3.5227 C.ar      1 <0>        -0.0779
      5 C5         -2.3665    1.2538    2.9550 C.ar      1 <0>        -0.1194
      6 C6         -1.7194    0.8079    1.8177 C.ar      1 <0>        -0.1100
      7 C7         -0.7181    1.5718    1.2479 C.ar      1 <0>        -0.0828
      8 C8         -0.3599    2.7788    1.8186 C.ar      1 <0>        -0.1132
      9 C9         -1.0099    3.2267    2.9534 C.ar      1 <0>        -0.1146
     10 C10        -0.0127    1.0858    0.0080 C.3       1 <0>        -0.0715
     11 C11        -0.7527    1.5927   -1.2315 C.3       1 <0>        -0.0100
     12 C12        -0.7734    3.1225   -1.2231 C.3       1 <0>        -0.1447
     13 C13        -2.1881    1.0631   -1.2207 C.3       1 <0>         0.0853
     14 O1         -2.1687   -0.3658   -1.2285 O.3       1 <0>        -0.5646
     15 C14        -0.0473    1.1066   -2.4714 C.ar      1 <0>        -0.0675
     16 C15         1.0917    0.3314   -2.3590 C.ar      1 <0>        -0.0866
     17 C16         1.7367   -0.1189   -3.4953 C.ar      1 <0>        -0.1501
     18 C17         1.2476    0.2155   -4.7467 C.ar      1 <0>         0.0916
     19 C18         0.1097    0.9965   -4.8581 C.ar      1 <0>        -0.1506
     20 C19        -0.5366    1.4412   -3.7203 C.ar      1 <0>        -0.0877
     21 F1          1.8800   -0.2201   -5.8582 F         1 <0>        -0.1414
     22 H1         -0.9489    3.8562    5.5925 H         1 <0>         0.0565
     23 H2         -2.2122    3.4786    6.7882 H         1 <0>         0.0582
     24 H3         -1.2193    2.1716    6.0997 H         1 <0>         0.0557
     25 H4         -3.4706    2.2203    5.0614 H         1 <0>         0.0762
     26 H5         -4.1190    4.1644    3.6653 H         1 <0>         0.0551
     27 H6         -3.9055    4.6424    5.3666 H         1 <0>         0.0582
     28 H7         -2.6422    5.0199    4.1709 H         1 <0>         0.0565
     29 H8         -3.1493    0.6573    3.3998 H         1 <0>         0.1188
     30 H9         -1.9965   -0.1370    1.3742 H         1 <0>         0.1245
     31 H10         0.4254    3.3735    1.3759 H         1 <0>         0.1201
     32 H11        -0.7331    4.1718    3.3968 H         1 <0>         0.1194
     33 H12         0.0021   -0.0041    0.0020 H         1 <0>         0.0854
     34 H13         1.0099    1.4631    0.0003 H         1 <0>         0.0747
     35 H14         0.2491    3.4998   -1.2308 H         1 <0>         0.0655
     36 H15        -1.3006    3.4836   -2.1062 H         1 <0>         0.0593
     37 H16        -1.2836    3.4740   -0.3263 H         1 <0>         0.0687
     38 H17        -2.6983    1.4146   -0.3239 H         1 <0>         0.0557
     39 H18        -2.7153    1.4241   -2.1037 H         1 <0>         0.0446
     40 H19        -3.0466   -0.7711   -1.2223 H         1 <0>         0.3783
     41 H20         1.4754    0.0740   -1.3827 H         1 <0>         0.1352
     42 H21         2.6242   -0.7280   -3.4072 H         1 <0>         0.1344
     43 H22        -0.2729    1.2577   -5.8337 H         1 <0>         0.1339
     44 H23        -1.4243    2.0501   -3.8070 H         1 <0>         0.1282
@<TRIPOS>BOND
     1    1    2 1
     2    1   22 1
     3    1   23 1
     4    1   24 1
     5    2    3 1
     6    2    4 1
     7    2   25 1
     8    3   26 1
     9    3   27 1
    10    3   28 1
    11    4    9 ar
    12    4    5 ar
    13    5    6 ar
    14    5   29 1
    15    6    7 ar
    16    6   30 1
    17    7    8 ar
    18    7   10 1
    19    8    9 ar
    20    8   31 1
    21    9   32 1
    22   10   11 1
    23   10   33 1
    24   10   34 1
    25   11   12 1
    26   11   13 1
    27   11   15 1
    28   12   35 1
    29   12   36 1
    30   12   37 1
    31   13   14 1
    32   13   38 1
    33   13   39 1
    34   14   40 1
    35   15   20 ar
    36   15   16 ar
    37   16   17 ar
    38   16   41 1
    39   17   18 ar
    40   17   42 1
    41   18   19 ar
    42   18   21 1
    43   19   20 ar
    44   19   43 1
    45   20   44 1
@<TRIPOS>MOLECULE
ZINC36919591
   37    38     0     0     0
SMALL
USER_CHARGES

@<TRIPOS>ATOM
      1 C1          0.1403    1.4443    0.2173 C.3       1 <0>        -0.1517
      2 C2          0.0271   -0.0720    0.0472 C.3       1 <0>        -0.1260
      3 C3          0.6017   -0.4770   -1.3118 C.3       1 <0>         0.1924
      4 H1          0.1066    0.0910   -2.0994 H         1 <0>         0.0893
      5 C4          0.3732   -1.9497   -1.5350 C.ar      1 <0>        -0.1029
      6 C5          1.2074   -2.8768   -0.9388 C.ar      1 <0>        -0.0996
      7 C6          0.9978   -4.2277   -1.1436 C.ar      1 <0>        -0.1199
      8 C7         -0.0463   -4.6516   -1.9442 C.ar      1 <0>        -0.1190
      9 C8         -0.8811   -3.7246   -2.5397 C.ar      1 <0>        -0.1177
     10 C9         -0.6741   -2.3738   -2.3315 C.ar      1 <0>        -0.1137
     11 N1          2.0393   -0.1965   -1.3374 N.pl3     1 <0>        -0.7352
     12 C10         2.6832    0.0483   -2.5562 C.ar      1 <0>         0.2279
     13 C11         1.9869   -0.0915   -3.7496 C.ar      1 <0>        -0.1770
     14 C12         2.6216    0.1502   -4.9517 C.ar      1 <0>        -0.0394
     15 C13         3.9568    0.5333   -4.9674 C.ar      1 <0>        -0.1506
     16 C14         4.6531    0.6730   -3.7735 C.ar      1 <0>        -0.0699
     17 C15         4.0166    0.4363   -2.5714 C.ar      1 <0>        -0.1754
     18 S1          4.7672    0.8413   -6.5014 S.3       1 <0>        -0.1074
     19 C16         6.4551    1.3008   -6.0215 C.3       1 <0>         0.2735
     20 F1          6.4154    2.4386   -5.2086 F         1 <0>        -0.1819
     21 F2          7.0435    0.2448   -5.3173 F         1 <0>        -0.1820
     22 H2          1.1920    1.7283    0.2537 H         1 <0>         0.0567
     23 H3         -0.3413    1.9414   -0.6248 H         1 <0>         0.0563
     24 H4         -0.3491    1.7435    1.1441 H         1 <0>         0.0581
     25 H5          0.5853   -0.5693    0.8404 H         1 <0>         0.0694
     26 H6         -1.0210   -0.3664    0.1009 H         1 <0>         0.0798
     27 H7          2.0232   -2.5456   -0.3133 H         1 <0>         0.1169
     28 H8          1.6500   -4.9520   -0.6783 H         1 <0>         0.1208
     29 H9         -0.2096   -5.7071   -2.1048 H         1 <0>         0.1213
     30 H10        -1.6966   -4.0558   -3.1655 H         1 <0>         0.1226
     31 H11        -1.3286   -1.6496   -2.7937 H         1 <0>         0.1212
     32 H12         2.5451   -0.1803   -0.5098 H         1 <0>         0.4005
     33 H13         0.9489   -0.3896   -3.7373 H         1 <0>         0.1284
     34 H14         2.0801    0.0412   -5.8798 H         1 <0>         0.1281
     35 H15         5.6912    0.9708   -3.7854 H         1 <0>         0.1241
     36 H16         4.5566    0.5492   -1.6430 H         1 <0>         0.1258
     37 H17         7.0419    1.5130   -6.9152 H         1 <0>         0.1563
@<TRIPOS>BOND
     1    1    2 1
     2    1   22 1
     3    1   23 1
     4    1   24 1
     5    2    3 1
     6    2   25 1
     7    2   26 1
     8    3    4 1
     9    3    5 1
    10    3   11 1
    11    5   10 ar
    12    5    6 ar
    13    6    7 ar
    14    6   27 1
    15    7    8 ar
    16    7   28 1
    17    8    9 ar
    18    8   29 1
    19    9   10 ar
    20    9   30 1
    21   10   31 1
    22   11   12 1
    23   11   32 1
    24   12   17 ar
    25   12   13 ar
    26   13   14 ar
    27   13   33 1
    28   14   15 ar
    29   14   34 1
    30   15   16 ar
    31   15   18 1
    32   16   17 ar
    33   16   35 1
    34   17   36 1
    35   18   19 1
    36   19   20 1
    37   19   21 1
    38   19   37 1
@<TRIPOS>MOLECULE
ZINC37075581
   39    40     0     0     0
SMALL
USER_CHARGES

@<TRIPOS>ATOM
      1 C1         -0.0187    1.5258    0.0104 C.3       1 <0>        -0.1549
      2 C2          0.0021   -0.0041    0.0020 C.3       1 <0>        -0.1178
      3 C3          0.7182   -0.4975   -1.2568 C.3       1 <0>        -0.0990
      4 H1          0.2444   -0.0644   -2.1377 H         1 <0>         0.0764
      5 C4          2.1873   -0.0730   -1.2073 C.3       1 <0>        -0.1544
      6 C5          0.6303   -2.0233   -1.3286 C.3       1 <0>         0.1488
      7 H2         -0.4163   -2.3257   -1.3639 H         1 <0>         0.0813
      8 C6          1.2954   -2.6312   -0.0921 C.3       1 <0>        -0.1736
      9 N1          1.3160   -2.4957   -2.5339 N.pl3     1 <0>        -0.7368
     10 C7          0.9584   -3.7169   -3.1068 C.ar      1 <0>         0.2411
     11 C8         -0.0498   -4.4830   -2.5409 C.ar      1 <0>        -0.1999
     12 C9         -0.4030   -5.6919   -3.1099 C.ar      1 <0>        -0.0587
     13 C10         0.2446   -6.1464   -4.2457 C.ar      1 <0>        -0.1796
     14 C11         1.2501   -5.3964   -4.8208 C.ar      1 <0>        -0.0443
     15 C12         1.6124   -4.1719   -4.2600 C.ar      1 <0>        -0.1008
     16 C13         2.6843   -3.3613   -4.8749 C.2       1 <0>        -0.0863
     17 C14         3.9413   -3.7432   -5.2611 C.2       1 <0>        -0.1547
     18 C15         4.7778   -2.8004   -5.8188 C.2       1 <0>        -0.1500
     19 C16         4.3326   -1.5270   -5.9680 C.2       1 <0>        -0.1789
     20 S1          2.6746   -1.6309   -5.3146 S.3       1 <0>         0.0264
     21 H3          1.0039    1.9031    0.0027 H         1 <0>         0.0572
     22 H4         -0.5459    1.8868   -0.8726 H         1 <0>         0.0539
     23 H5         -0.5289    1.8773    0.9072 H         1 <0>         0.0555
     24 H6          0.5293   -0.3651    0.8851 H         1 <0>         0.0680
     25 H7         -1.0205   -0.3814    0.0098 H         1 <0>         0.0641
     26 H8          2.6611   -0.5061   -0.3263 H         1 <0>         0.0616
     27 H9          2.6975   -0.4246   -2.1040 H         1 <0>         0.0510
     28 H10         2.2499    1.0140   -1.1561 H         1 <0>         0.0626
     29 H11         0.7852   -2.2797    0.8047 H         1 <0>         0.0680
     30 H12         1.2328   -3.7182   -0.1432 H         1 <0>         0.0589
     31 H13         2.3420   -2.3288   -0.0568 H         1 <0>         0.0616
     32 H14         2.0187   -1.9597   -2.9338 H         1 <0>         0.3995
     33 H15        -0.5590   -4.1347   -1.6545 H         1 <0>         0.1263
     34 H16        -1.1884   -6.2854   -2.6657 H         1 <0>         0.1237
     35 H17        -0.0381   -7.0924   -4.6835 H         1 <0>         0.1235
     36 H18         1.7531   -5.7554   -5.7066 H         1 <0>         0.1243
     37 H19         4.2710   -4.7634   -5.1308 H         1 <0>         0.1349
     38 H20         5.7749   -3.0715   -6.1329 H         1 <0>         0.1353
     39 H21         4.8474   -0.6718   -6.3804 H         1 <0>         0.1859
@<TRIPOS>BOND
     1    1    2 1
     2    1   21 1
     3    1   22 1
     4    1   23 1
     5    2    3 1
     6    2   24 1
     7    2   25 1
     8    3    4 1
     9    3    5 1
    10    3    6 1
    11    5   26 1
    12    5   27 1
    13    5   28 1
    14    6    7 1
    15    6    8 1
    16    6    9 1
    17    8   29 1
    18    8   30 1
    19    8   31 1
    20    9   10 1
    21    9   32 1
    22   10   15 ar
    23   10   11 ar
    24   11   12 ar
    25   11   33 1
    26   12   13 ar
    27   12   34 1
    28   13   14 ar
    29   13   35 1
    30   14   15 ar
    31   14   36 1
    32   15   16 1
    33   16   20 1
    34   16   17 2
    35   17   18 1
    36   17   37 1
    37   18   19 2
    38   18   38 1
    39   19   20 1
    40   19   39 1
@<TRIPOS>MOLECULE
ZINC37279056
   46    47     0     0     0
SMALL
USER_CHARGES

@<TRIPOS>ATOM
      1 C1         -0.7195    1.6501    0.5749 C.3       1 <0>        -0.1715
      2 C2         -0.4168    0.1683    0.3437 C.3       1 <0>         0.1438
      3 H1          0.2007    0.0584   -0.5478 H         1 <0>         0.0878
      4 C3         -1.7282   -0.5965    0.1532 C.3       1 <0>        -0.1200
      5 C4         -1.4225   -2.0416   -0.2458 C.3       1 <0>        -0.0200
      6 C5         -0.5130   -2.0495   -1.4761 C.3       1 <0>        -0.1419
      7 C6         -0.7200   -2.7527    0.9124 C.3       1 <0>        -0.1510
      8 C7         -2.7094   -2.7567   -0.5679 C.ar      1 <0>        -0.0682
      9 C8         -3.9142   -2.0846   -0.4804 C.ar      1 <0>        -0.1243
     10 C9         -5.0946   -2.7406   -0.7758 C.ar      1 <0>        -0.1179
     11 C10        -5.0701   -4.0685   -1.1591 C.ar      1 <0>        -0.1264
     12 C11        -3.8652   -4.7403   -1.2475 C.ar      1 <0>        -0.1177
     13 C12        -2.6845   -4.0831   -0.9563 C.ar      1 <0>        -0.1153
     14 N1          0.2988   -0.3707    1.5029 N.pl3     1 <0>        -0.7316
     15 C13         1.6898   -0.2382    1.5905 C.ar      1 <0>         0.2416
     16 C14         2.3915    0.4075    0.5841 C.ar      1 <0>        -0.1854
     17 C15         3.7655    0.5368    0.6723 C.ar      1 <0>        -0.0731
     18 C16         4.4438    0.0236    1.7624 C.ar      1 <0>        -0.1624
     19 C17         3.7525   -0.6215    2.7709 C.ar      1 <0>        -0.0849
     20 C18         2.3734   -0.7507    2.6935 C.ar      1 <0>        -0.1608
     21 S1          1.4886   -1.5660    3.9808 S.3       1 <0>        -0.1360
     22 C19         2.7774   -2.0442    5.1645 C.3       1 <0>        -0.1363
     23 H2          0.2148    2.1949    0.7107 H         1 <0>         0.0607
     24 H3         -1.2519    2.0510   -0.2876 H         1 <0>         0.0645
     25 H4         -1.3370    1.7600    1.4664 H         1 <0>         0.0586
     26 H5         -2.2922   -0.5886    1.0859 H         1 <0>         0.0718
     27 H6         -2.3162   -0.1197   -0.6310 H         1 <0>         0.0829
     28 H7          0.4178   -1.5322   -1.2432 H         1 <0>         0.0629
     29 H8         -0.2952   -3.0790   -1.7603 H         1 <0>         0.0573
     30 H9         -1.0135   -1.5428   -2.3012 H         1 <0>         0.0564
     31 H10        -1.3005   -2.6209    1.8255 H         1 <0>         0.0520
     32 H11        -0.6333   -3.8157    0.6872 H         1 <0>         0.0525
     33 H12         0.2745   -2.3282    1.0498 H         1 <0>         0.0817
     34 H13        -3.9333   -1.0472   -0.1808 H         1 <0>         0.1245
     35 H14        -6.0359   -2.2157   -0.7067 H         1 <0>         0.1203
     36 H15        -5.9924   -4.5812   -1.3893 H         1 <0>         0.1198
     37 H16        -3.8462   -5.7779   -1.5467 H         1 <0>         0.1204
     38 H17        -1.7428   -4.6069   -1.0289 H         1 <0>         0.1197
     39 H18        -0.1911   -0.8192    2.2097 H         1 <0>         0.4035
     40 H19         1.8650    0.8093   -0.2690 H         1 <0>         0.1260
     41 H20         4.3104    1.0399   -0.1128 H         1 <0>         0.1225
     42 H21         5.5170    0.1267    1.8259 H         1 <0>         0.1204
     43 H22         4.2856   -1.0214    3.6208 H         1 <0>         0.1200
     44 H23         2.3217   -2.5625    6.0081 H         1 <0>         0.1075
     45 H24         3.4927   -2.7053    4.6753 H         1 <0>         0.0829
     46 H25         3.2922   -1.1521    5.5212 H         1 <0>         0.0827
@<TRIPOS>BOND
     1    1    2 1
     2    1   23 1
     3    1   24 1
     4    1   25 1
     5    2    3 1
     6    2    4 1
     7    2   14 1
     8    4    5 1
     9    4   26 1
    10    4   27 1
    11    5    6 1
    12    5    7 1
    13    5    8 1
    14    6   28 1
    15    6   29 1
    16    6   30 1
    17    7   31 1
    18    7   32 1
    19    7   33 1
    20    8   13 ar
    21    8    9 ar
    22    9   10 ar
    23    9   34 1
    24   10   11 ar
    25   10   35 1
    26   11   12 ar
    27   11   36 1
    28   12   13 ar
    29   12   37 1
    30   13   38 1
    31   14   15 1
    32   14   39 1
    33   15   20 ar
    34   15   16 ar
    35   16   17 ar
    36   16   40 1
    37   17   18 ar
    38   17   41 1
    39   18   19 ar
    40   18   42 1
    41   19   20 ar
    42   19   43 1
    43   20   21 1
    44   21   22 1
    45   22   44 1
    46   22   45 1
    47   22   46 1
@<TRIPOS>MOLECULE
ZINC41463136
   44    45     0     0     0
SMALL
USER_CHARGES

@<TRIPOS>ATOM
      1 C1         -0.0187    1.5258    0.0104 C.3       1 <0>        -0.1387
      2 C2          0.0021   -0.0041    0.0020 C.3       1 <0>        -0.0306
      3 C3          0.7421   -0.5109    1.2415 C.3       1 <0>        -0.1388
      4 C4         -1.4333   -0.5336    0.0129 C.3       1 <0>        -0.1452
      5 C5          0.7074   -0.4901   -1.2379 C.ar      1 <0>        -0.0718
      6 C6          0.0361   -1.2843   -2.1485 C.ar      1 <0>        -0.1186
      7 C7          0.6831   -1.7301   -3.2859 C.ar      1 <0>        -0.1062
      8 C8          2.0014   -1.3813   -3.5127 C.ar      1 <0>        -0.0716
      9 C9          2.6724   -0.5863   -2.6025 C.ar      1 <0>        -0.1142
     10 C10         2.0241   -0.1370   -1.4673 C.ar      1 <0>        -0.1134
     11 C11         2.7070   -1.8681   -4.7521 C.3       1 <0>        -0.0418
     12 H1          2.0234   -2.4766   -5.3442 H         1 <0>         0.0873
     13 C12         3.1692   -0.6677   -5.5806 C.3       1 <0>        -0.0703
     14 C13         3.7650   -1.1519   -6.8774 C.ar      1 <0>        -0.0938
     15 C14         5.1156   -1.4375   -6.9529 C.ar      1 <0>        -0.0896
     16 C15         5.6630   -1.8820   -8.1414 C.ar      1 <0>        -0.1513
     17 C16         4.8583   -2.0412   -9.2568 C.ar      1 <0>         0.0951
     18 C17         3.5058   -1.7548   -9.1800 C.ar      1 <0>        -0.1498
     19 C18         2.9596   -1.3155   -7.9890 C.ar      1 <0>        -0.0853
     20 F1          5.3925   -2.4752  -10.4194 F         1 <0>        -0.1395
     21 C19         3.9209   -2.7087   -4.3510 C.3       1 <0>         0.0793
     22 O1          3.4809   -3.8899   -3.6778 O.3       1 <0>        -0.5680
     23 H2          1.0039    1.9031    0.0027 H         1 <0>         0.0564
     24 H3         -0.5459    1.8868   -0.8726 H         1 <0>         0.0561
     25 H4         -0.5289    1.8773    0.9072 H         1 <0>         0.0585
     26 H5          0.2319   -0.1594    2.1383 H         1 <0>         0.0585
     27 H6          0.7568   -1.6008    1.2356 H         1 <0>         0.0563
     28 H7          1.7647   -0.1336    1.2338 H         1 <0>         0.0563
     29 H8         -1.9605   -0.1726   -0.8702 H         1 <0>         0.0585
     30 H9         -1.4185   -1.6235    0.0069 H         1 <0>         0.0587
     31 H10        -1.9435   -0.1821    0.9097 H         1 <0>         0.0584
     32 H11        -0.9938   -1.5568   -1.9713 H         1 <0>         0.1250
     33 H12         0.1588   -2.3512   -3.9970 H         1 <0>         0.1188
     34 H13         3.7024   -0.3141   -2.7796 H         1 <0>         0.1170
     35 H14         2.5473    0.4872   -0.7580 H         1 <0>         0.1188
     36 H15         2.3169   -0.0218   -5.7912 H         1 <0>         0.0849
     37 H16         3.9199   -0.1083   -5.0223 H         1 <0>         0.0793
     38 H17         5.7431   -1.3128   -6.0828 H         1 <0>         0.1317
     39 H18         6.7182   -2.1047   -8.2002 H         1 <0>         0.1359
     40 H19         2.8773   -1.8784  -10.0495 H         1 <0>         0.1363
     41 H20         1.9039   -1.0964   -7.9276 H         1 <0>         0.1336
     42 H21         4.4814   -2.9866   -5.2435 H         1 <0>         0.0527
     43 H22         4.5608   -2.1286   -3.6860 H         1 <0>         0.0461
     44 H23         4.1993   -4.4716   -3.3940 H         1 <0>         0.3791
@<TRIPOS>BOND
     1    1    2 1
     2    1   23 1
     3    1   24 1
     4    1   25 1
     5    2    3 1
     6    2    4 1
     7    2    5 1
     8    3   26 1
     9    3   27 1
    10    3   28 1
    11    4   29 1
    12    4   30 1
    13    4   31 1
    14    5   10 ar
    15    5    6 ar
    16    6    7 ar
    17    6   32 1
    18    7    8 ar
    19    7   33 1
    20    8    9 ar
    21    8   11 1
    22    9   10 ar
    23    9   34 1
    24   10   35 1
    25   11   12 1
    26   11   13 1
    27   11   21 1
    28   13   14 1
    29   13   36 1
    30   13   37 1
    31   14   19 ar
    32   14   15 ar
    33   15   16 ar
    34   15   38 1
    35   16   17 ar
    36   16   39 1
    37   17   18 ar
    38   17   20 1
    39   18   19 ar
    40   18   40 1
    41   19   41 1
    42   21   22 1
    43   21   42 1
    44   21   43 1
    45   22   44 1
@<TRIPOS>MOLECULE
ZINC03190130
   48    48     0     0     0
SMALL
USER_CHARGES
2-(ethylaminoiminomethyl)-4,6-ditert-butyl-phenol
@<TRIPOS>ATOM
      1 C1          8.4635   -0.9386   -0.0821 C.3       1 <0>        -0.1655
      2 C2          7.2870    0.0394   -0.0662 C.3       1 <0>         0.1539
      3 N1          6.0286   -0.7107   -0.0583 N.pl3     1 <0>        -0.6635
      4 N2          4.8058   -0.0271   -0.0434 N.2       1 <0>        -0.1922
      5 C3          3.6912   -0.6914   -0.0363 C.2       1 <0>         0.0443
      6 C4          2.4043    0.0280   -0.0207 C.ar      1 <0>        -0.0571
      7 C5          1.2026   -0.6831   -0.0131 C.ar      1 <0>        -0.0946
      8 C6          0.0021   -0.0041    0.0020 C.ar      1 <0>        -0.0766
      9 C7         -0.0167    1.3800    0.0096 C.ar      1 <0>        -0.0972
     10 C8          1.1664    2.0951    0.0022 C.ar      1 <0>        -0.0948
     11 C9          2.3805    1.4290   -0.0130 C.ar      1 <0>         0.1332
     12 O1          3.5435    2.1309   -0.0207 O.3       1 <0>        -0.4703
     13 C10         1.1349    3.6018    0.0105 C.3       1 <0>        -0.0199
     14 C11        -0.3179    4.0814    0.0270 C.3       1 <0>        -0.1458
     15 C12         1.8572    4.1201    1.2557 C.3       1 <0>        -0.1420
     16 C13         1.8334    4.1334   -1.2426 C.3       1 <0>        -0.1425
     17 C14        -1.2944   -0.7722    0.0107 C.3       1 <0>        -0.0272
     18 C15        -2.1132   -0.4049   -1.2285 C.3       1 <0>        -0.1393
     19 C16        -0.9981   -2.2732   -0.0002 C.3       1 <0>        -0.1462
     20 C17        -2.0884   -0.4183    1.2698 C.3       1 <0>        -0.1397
     21 H1          8.4228   -1.5705    0.8051 H         1 <0>         0.0605
     22 H2          8.4062   -1.5615   -0.9748 H         1 <0>         0.0602
     23 H3          9.3998   -0.3805   -0.0881 H         1 <0>         0.0772
     24 H4          7.3278    0.6713   -0.9535 H         1 <0>         0.0571
     25 H5          7.3444    0.6623    0.8264 H         1 <0>         0.0582
     26 H6          6.0420   -1.6806   -0.0633 H         1 <0>         0.3741
     27 H7          3.7062   -1.7713   -0.0419 H         1 <0>         0.1074
     28 H8          1.2131   -1.7630   -0.0186 H         1 <0>         0.1309
     29 H9         -0.9609    1.9042    0.0169 H         1 <0>         0.1293
     30 H10         3.8715    2.3389   -0.9063 H         1 <0>         0.3811
     31 H11        -0.8155    3.7027    0.9197 H         1 <0>         0.0580
     32 H12        -0.3406    5.1712    0.0330 H         1 <0>         0.0586
     33 H13        -0.8325    3.7122   -0.8601 H         1 <0>         0.0573
     34 H14         2.8922    3.7783    1.2440 H         1 <0>         0.0757
     35 H15         1.8344    5.2098    1.2618 H         1 <0>         0.0532
     36 H16         1.3596    3.7413    2.1485 H         1 <0>         0.0503
     37 H17         1.3188    3.7642   -2.1297 H         1 <0>         0.0535
     38 H18         1.8106    5.2232   -1.2365 H         1 <0>         0.0595
     39 H19         2.8684    3.7917   -1.2543 H         1 <0>         0.0594
     40 H20        -1.5475   -0.6570   -2.1255 H         1 <0>         0.0566
     41 H21        -3.0509   -0.9605   -1.2222 H         1 <0>         0.0588
     42 H22        -2.3243    0.6644   -1.2207 H         1 <0>         0.0567
     43 H23        -0.4148   -2.5348    0.8826 H         1 <0>         0.0591
     44 H24        -1.9358   -2.8287    0.0061 H         1 <0>         0.0590
     45 H25        -0.4324   -2.5253   -0.8972 H         1 <0>         0.0590
     46 H26        -2.2996    0.6510    1.2777 H         1 <0>         0.0567
     47 H27        -3.0262   -0.9739    1.2762 H         1 <0>         0.0589
     48 H28        -1.5051   -0.6800    2.1527 H         1 <0>         0.0569
@<TRIPOS>BOND
     1    1    2 1
     2    1   21 1
     3    1   22 1
     4    1   23 1
     5    2    3 1
     6    2   24 1
     7    2   25 1
     8    3    4 1
     9    3   26 1
    10    4    5 2
    11    5    6 1
    12    5   27 1
    13    6   11 ar
    14    6    7 ar
    15    7    8 ar
    16    7   28 1
    17    8    9 ar
    18    8   17 1
    19    9   10 ar
    20    9   29 1
    21   10   11 ar
    22   10   13 1
    23   11   12 1
    24   12   30 1
    25   13   14 1
    26   13   15 1
    27   13   16 1
    28   14   31 1
    29   14   32 1
    30   14   33 1
    31   15   34 1
    32   15   35 1
    33   15   36 1
    34   16   37 1
    35   16   38 1
    36   16   39 1
    37   17   18 1
    38   17   19 1
    39   17   20 1
    40   18   40 1
    41   18   41 1
    42   18   42 1
    43   19   43 1
    44   19   44 1
    45   19   45 1
    46   20   46 1
    47   20   47 1
    48   20   48 1
@<TRIPOS>MOLECULE
ZINC37067868
   32    33     0     0     0
SMALL
USER_CHARGES

@<TRIPOS>ATOM
      1 C1         -0.0167    1.3770    0.0096 C.ar      1 <0>        -0.1036
      2 C2          1.1707    2.0858    0.0021 C.ar      1 <0>        -0.1089
      3 C3          2.3791    1.4145   -0.0130 C.ar      1 <0>        -0.0945
      4 C4          2.4032    0.0331   -0.0211 C.ar      1 <0>        -0.1260
      5 C5          1.2136   -0.6802   -0.0135 C.ar      1 <0>         0.1043
      6 C6          0.0021   -0.0041    0.0020 C.ar      1 <0>        -0.1362
      7 O1          1.2347   -2.0390   -0.0215 O.3       1 <0>        -0.4982
      8 C7          3.6712    2.1901   -0.0212 C.3       1 <0>         0.1648
      9 N1          4.1030    2.4341    1.3573 N.pl3     1 <0>        -0.7395
     10 C8          5.2856    3.1411    1.6056 C.ar      1 <0>         0.2293
     11 C9          6.0462    3.6161    0.5453 C.ar      1 <0>        -0.1803
     12 C10         7.2123    4.3138    0.7899 C.ar      1 <0>        -0.0297
     13 C11         7.6246    4.5407    2.0970 C.ar      1 <0>        -0.1661
     14 C12         6.8636    4.0654    3.1575 C.ar      1 <0>        -0.0685
     15 C13         5.6949    3.3723    2.9124 C.ar      1 <0>        -0.1722
     16 S1          9.1130    5.4305    2.4095 S.3       1 <0>        -0.0331
     17 C14         9.2284    5.4707    4.2194 C.3       1 <0>         0.4525
     18 F1          9.2830    4.1626    4.7123 F         1 <0>        -0.1648
     19 F2         10.3854    6.1602    4.5977 F         1 <0>        -0.1465
     20 F3          8.1059    6.1202    4.7440 F         1 <0>        -0.1647
     21 H1         -0.9594    1.9037    0.0259 H         1 <0>         0.1309
     22 H2          1.1540    3.1657    0.0076 H         1 <0>         0.1281
     23 H3          3.3475   -0.4909   -0.0336 H         1 <0>         0.1308
     24 H4         -0.9255   -0.5572    0.0082 H         1 <0>         0.1312
     25 H5          1.2494   -2.4373    0.8596 H         1 <0>         0.3929
     26 H6          4.4358    1.6168   -0.5454 H         1 <0>         0.0727
     27 H7          3.5198    3.1429   -0.5285 H         1 <0>         0.0740
     28 H8          3.5696    2.1057    2.0980 H         1 <0>         0.4032
     29 H9          5.7258    3.4395   -0.4709 H         1 <0>         0.1329
     30 H10         7.8039    4.6829   -0.0348 H         1 <0>         0.1331
     31 H11         7.1840    4.2416    4.1737 H         1 <0>         0.1229
     32 H12         5.1009    3.0067    3.7369 H         1 <0>         0.1294
@<TRIPOS>BOND
     1    1    6 ar
     2    1    2 ar
     3    1   21 1
     4    2    3 ar
     5    2   22 1
     6    3    4 ar
     7    3    8 1
     8    4    5 ar
     9    4   23 1
    10    5    6 ar
    11    5    7 1
    12    6   24 1
    13    7   25 1
    14    8    9 1
    15    8   26 1
    16    8   27 1
    17    9   10 1
    18    9   28 1
    19   10   15 ar
    20   10   11 ar
    21   11   12 ar
    22   11   29 1
    23   12   13 ar
    24   12   30 1
    25   13   14 ar
    26   13   16 1
    27   14   15 ar
    28   14   31 1
    29   15   32 1
    30   16   17 1
    31   17   18 1
    32   17   19 1
    33   17   20 1
@<TRIPOS>MOLECULE
ZINC37124062
   43    44     0     0     0
SMALL
USER_CHARGES

@<TRIPOS>ATOM
      1 C1         -0.0187    1.5258    0.0104 C.3       1 <0>        -0.1709
      2 C2          0.0021   -0.0041    0.0020 C.3       1 <0>         0.1481
      3 H1          0.5123   -0.3556   -0.8948 H         1 <0>         0.0786
      4 C3          0.7421   -0.5109    1.2415 C.3       1 <0>        -0.1290
      5 C4          0.8719   -2.0337    1.1708 C.3       1 <0>        -0.1130
      6 C5          1.6119   -2.5406    2.4104 C.3       1 <0>        -0.0983
      7 C6          0.7686   -2.2637    3.6566 C.3       1 <0>        -0.1499
      8 C7          1.8518   -4.0461    2.2811 C.3       1 <0>        -0.1490
      9 N1         -1.3723   -0.5112    0.0124 N.pl3     1 <0>        -0.7400
     10 C8         -2.0766   -0.6477   -1.1886 C.ar      1 <0>         0.2061
     11 C9         -1.4709   -0.3079   -2.3916 C.ar      1 <0>        -0.1704
     12 C10        -2.1660   -0.4419   -3.5767 C.ar      1 <0>        -0.0982
     13 C11        -3.4707   -0.9171   -3.5663 C.ar      1 <0>         0.0942
     14 C12        -4.0758   -1.2575   -2.3639 C.ar      1 <0>        -0.0706
     15 C13        -3.3795   -1.1284   -1.1788 C.ar      1 <0>        -0.1632
     16 C14        -5.4912   -1.7740   -2.3567 C.3       1 <0>        -0.0790
     17 C15        -6.2898   -1.0929   -3.4686 C.3       1 <0>        -0.1377
     18 C16        -5.5205   -1.1497   -4.7608 C.2       1 <0>         0.5189
     19 O1         -6.1172   -1.2830   -5.8084 O.2       1 <0>        -0.5347
     20 N2         -4.1783   -1.0544   -4.7674 N.am      1 <0>        -0.6607
     21 H2          1.0039    1.9031    0.0027 H         1 <0>         0.0633
     22 H3         -0.5459    1.8868   -0.8726 H         1 <0>         0.0595
     23 H4         -0.5289    1.8773    0.9072 H         1 <0>         0.0579
     24 H5          1.7350   -0.0630    1.2804 H         1 <0>         0.0766
     25 H6          0.1838   -0.2350    2.1361 H         1 <0>         0.0703
     26 H7         -0.1210   -2.4817    1.1320 H         1 <0>         0.0647
     27 H8          1.4302   -2.3096    0.2763 H         1 <0>         0.0614
     28 H9          2.5690   -2.0263    2.4977 H         1 <0>         0.0686
     29 H10         0.5977   -1.1911    3.7487 H         1 <0>         0.0556
     30 H11        -0.1885   -2.7779    3.5692 H         1 <0>         0.0534
     31 H12         1.2958   -2.6248    4.5396 H         1 <0>         0.0532
     32 H13         2.4526   -4.2434    1.3933 H         1 <0>         0.0537
     33 H14         2.3790   -4.4072    3.1641 H         1 <0>         0.0541
     34 H15         0.8947   -4.5603    2.1937 H         1 <0>         0.0537
     35 H16        -1.7940   -0.7522    0.8520 H         1 <0>         0.3984
     36 H17        -0.4561    0.0615   -2.3997 H         1 <0>         0.1270
     37 H18        -1.6952   -0.1768   -4.5118 H         1 <0>         0.1265
     38 H19        -3.8492   -1.3972   -0.2442 H         1 <0>         0.1261
     39 H20        -5.4855   -2.8515   -2.5215 H         1 <0>         0.0840
     40 H21        -5.9522   -1.5567   -1.3932 H         1 <0>         0.0909
     41 H22        -7.2448   -1.6033   -3.5931 H         1 <0>         0.1082
     42 H23        -6.4694   -0.0520   -3.1997 H         1 <0>         0.1028
     43 H24        -3.6976   -1.0807   -5.6095 H         1 <0>         0.4086
@<TRIPOS>BOND
     1    1    2 1
     2    1   21 1
     3    1   22 1
     4    1   23 1
     5    2    3 1
     6    2    4 1
     7    2    9 1
     8    4    5 1
     9    4   24 1
    10    4   25 1
    11    5    6 1
    12    5   26 1
    13    5   27 1
    14    6    7 1
    15    6    8 1
    16    6   28 1
    17    7   29 1
    18    7   30 1
    19    7   31 1
    20    8   32 1
    21    8   33 1
    22    8   34 1
    23    9   10 1
    24    9   35 1
    25   10   15 ar
    26   10   11 ar
    27   11   12 ar
    28   11   36 1
    29   12   13 ar
    30   12   37 1
    31   13   20 1
    32   13   14 ar
    33   14   15 ar
    34   14   16 1
    35   15   38 1
    36   16   17 1
    37   16   39 1
    38   16   40 1
    39   17   18 1
    40   17   41 1
    41   17   42 1
    42   18   19 2
    43   18   20 am
    44   20   43 1
@<TRIPOS>MOLECULE
ZINC49903066
   49    50     0     0     0
SMALL
USER_CHARGES

@<TRIPOS>ATOM
      1 C1         -0.0187    1.5258    0.0104 C.3       1 <0>        -0.1481
      2 C2          0.0021   -0.0041    0.0020 C.3       1 <0>        -0.0779
      3 C3          0.7074   -0.4901   -1.2379 C.ar      1 <0>        -0.1570
      4 C4         -0.0214   -0.8172   -2.3647 C.ar      1 <0>        -0.0716
      5 C5          0.6249   -1.2636   -3.5025 C.ar      1 <0>        -0.1763
      6 C6          2.0027   -1.3838   -3.5168 C.ar      1 <0>        -0.0768
      7 C7          2.7375   -1.0581   -2.3940 C.ar      1 <0>        -0.1976
      8 C8          2.0916   -0.6042   -1.2507 C.ar      1 <0>         0.2186
      9 N1          2.8321   -0.2689   -0.1149 N.pl3     1 <0>        -0.7429
     10 C9          4.2921   -0.3898   -0.1303 C.3       1 <0>         0.0999
     11 C10         4.8535    0.0367    1.2276 C.3       1 <0>         0.1412
     12 H1          4.5031    1.0409    1.4664 H         1 <0>         0.1121
     13 C11         6.3595    0.0299    1.1731 C.ar      1 <0>        -0.1235
     14 C12         7.0501   -1.1613    1.2945 C.ar      1 <0>        -0.1059
     15 C13         8.4315   -1.1676    1.2446 C.ar      1 <0>        -0.1138
     16 C14         9.1223    0.0174    1.0726 C.ar      1 <0>        -0.0690
     17 C15         8.4316    1.2086    0.9503 C.ar      1 <0>        -0.1112
     18 C16         7.0500    1.2143    0.9960 C.ar      1 <0>        -0.1030
     19 C17        10.6283    0.0107    1.0191 C.3       1 <0>        -0.0552
     20 H2         10.9914   -1.0107    1.1327 H         1 <0>         0.0785
     21 C18        11.1827    0.8779    2.1512 C.3       1 <0>        -0.1466
     22 C19        11.0933    0.5706   -0.3267 C.3       1 <0>        -0.1158
     23 C20        12.6149    0.4487   -0.4315 C.3       1 <0>        -0.1556
     24 O1          4.4091   -0.8749    2.2344 O.3       1 <0>        -0.5499
     25 H3          1.0039    1.9031    0.0027 H         1 <0>         0.0526
     26 H4         -0.5459    1.8868   -0.8726 H         1 <0>         0.0566
     27 H5         -0.5289    1.8773    0.9072 H         1 <0>         0.0566
     28 H6          0.5293   -0.3651    0.8851 H         1 <0>         0.0646
     29 H7         -1.0205   -0.3814    0.0098 H         1 <0>         0.0717
     30 H8         -1.0974   -0.7244   -2.3568 H         1 <0>         0.1194
     31 H9          0.0526   -1.5194   -4.3819 H         1 <0>         0.1173
     32 H10         2.5044   -1.7332   -4.4071 H         1 <0>         0.1186
     33 H11         3.8132   -1.1526   -2.4057 H         1 <0>         0.1174
     34 H12         2.3798    0.0441    0.6840 H         1 <0>         0.4033
     35 H13         4.5688   -1.4253   -0.3288 H         1 <0>         0.0634
     36 H14         4.7016    0.2517   -0.9105 H         1 <0>         0.0701
     37 H15         6.5104   -2.0871    1.4289 H         1 <0>         0.1198
     38 H16         8.9712   -2.0982    1.3402 H         1 <0>         0.1236
     39 H17         8.9713    2.1344    0.8163 H         1 <0>         0.1237
     40 H18         6.5103    2.1444    0.8966 H         1 <0>         0.1235
     41 H19        10.8196    1.8994    2.0376 H         1 <0>         0.0568
     42 H20        10.8515    0.4791    3.1100 H         1 <0>         0.0557
     43 H21        12.2720    0.8731    2.1125 H         1 <0>         0.0624
     44 H22        10.6272    0.0073   -1.1351 H         1 <0>         0.0627
     45 H23        10.8067    1.6195   -0.4025 H         1 <0>         0.0637
     46 H24        13.0810    1.0120    0.3769 H         1 <0>         0.0578
     47 H25        12.9014   -0.6002   -0.3557 H         1 <0>         0.0544
     48 H26        12.9461    0.8476   -1.3903 H         1 <0>         0.0553
     49 H27         4.6852   -1.7897    2.0861 H         1 <0>         0.3765
@<TRIPOS>BOND
     1    1    2 1
     2    1   25 1
     3    1   26 1
     4    1   27 1
     5    2    3 1
     6    2   28 1
     7    2   29 1
     8    3    8 ar
     9    3    4 ar
    10    4    5 ar
    11    4   30 1
    12    5    6 ar
    13    5   31 1
    14    6    7 ar
    15    6   32 1
    16    7    8 ar
    17    7   33 1
    18    8    9 1
    19    9   10 1
    20    9   34 1
    21   10   11 1
    22   10   35 1
    23   10   36 1
    24   11   12 1
    25   11   13 1
    26   11   24 1
    27   13   18 ar
    28   13   14 ar
    29   14   15 ar
    30   14   37 1
    31   15   16 ar
    32   15   38 1
    33   16   17 ar
    34   16   19 1
    35   17   18 ar
    36   17   39 1
    37   18   40 1
    38   19   20 1
    39   19   21 1
    40   19   22 1
    41   21   41 1
    42   21   42 1
    43   21   43 1
    44   22   23 1
    45   22   44 1
    46   22   45 1
    47   23   46 1
    48   23   47 1
    49   23   48 1
    50   24   49 1
@<TRIPOS>MOLECULE
ZINC57671447
   48    49     0     0     0
SMALL
NO_CHARGES

@<TRIPOS>ATOM
      1 C1          0.1363    2.1110    0.3722 C.3       1 <0>        -0.1525
      2 C2          0.3137    0.6033    0.5621 C.3       1 <0>        -0.1315
      3 C3          1.1355    0.0365   -0.5974 C.3       1 <0>         0.2050
      4 H1          2.0779    0.5788   -0.6739 H         1 <0>         0.0753
      5 C4          1.4147   -1.4234   -0.3487 C.ar      1 <0>        -0.0829
      6 C5          0.4456   -2.3694   -0.6255 C.ar      1 <0>        -0.1126
      7 C6          0.7017   -3.7085   -0.3974 C.ar      1 <0>        -0.1184
      8 C7          1.9271   -4.1017    0.1072 C.ar      1 <0>        -0.1254
      9 C8          2.8966   -3.1557    0.3832 C.ar      1 <0>        -0.1178
     10 C9          2.6420   -1.8170    0.1510 C.ar      1 <0>        -0.1140
     11 N1          0.3843    0.1841   -1.8464 N.pl3     1 <0>        -0.7364
     12 C10         0.4483    1.3816   -2.5625 C.ar      1 <0>         0.0113
     13 C11         1.2283    2.4316   -2.0947 C.ar      1 <0>        -0.1289
     14 C12         1.2898    3.6141   -2.8054 C.ar      1 <0>        -0.1373
     15 C13         0.5756    3.7538   -3.9813 C.ar      1 <0>        -0.3009
     16 C14        -0.2019    2.7106   -4.4498 C.ar      1 <0>        -0.1405
     17 C15        -0.2633    1.5233   -3.7470 C.ar      1 <0>        -0.1258
     18 N2          0.6393    4.9525   -4.6978 N.4       1 <0>        -0.2592
     19 C16         1.1682    4.6914   -6.0431 C.3       1 <0>        -0.0137
     20 C17         2.6210    4.2231   -5.9380 C.3       1 <0>        -0.1633
     21 C18        -0.7067    5.5313   -4.8046 C.3       1 <0>        -0.0138
     22 C19        -1.2001    5.9350   -3.4137 C.3       1 <0>        -0.1632
     23 H2          1.1141    2.5921    0.3507 H         1 <0>         0.0515
     24 H3         -0.3825    2.3004   -0.5675 H         1 <0>         0.0794
     25 H4         -0.4492    2.5148    1.1982 H         1 <0>         0.0392
     26 H5          0.8325    0.4139    1.5018 H         1 <0>         0.0574
     27 H6         -0.6642    0.1222    0.5835 H         1 <0>         0.0592
     28 H7         -0.5118   -2.0623   -1.0198 H         1 <0>         0.1193
     29 H8         -0.0557   -4.4476   -0.6131 H         1 <0>         0.1205
     30 H9          2.1270   -5.1478    0.2861 H         1 <0>         0.1201
     31 H10         3.8539   -3.4629    0.7777 H         1 <0>         0.1213
     32 H11         3.4008   -1.0783    0.3632 H         1 <0>         0.1209
     33 H12        -0.1575   -0.5498   -2.1762 H         1 <0>         0.3825
     34 H13         1.7858    2.3234   -1.1760 H         1 <0>         0.0975
     35 H14         1.8960    4.4308   -2.4423 H         1 <0>         0.0779
     36 H15        -0.7585    2.8230   -5.3685 H         1 <0>         0.0759
     37 H16        -0.8671    0.7074   -4.1158 H         1 <0>         0.0837
     38 H17         0.5708    3.9170   -6.5244 H         1 <0>         0.1081
     39 H18         1.1230    5.6055   -6.6351 H         1 <0>         0.0899
     40 H19         3.1975    4.9524   -5.3689 H         1 <0>         0.0605
     41 H20         2.6560    3.2580   -5.4325 H         1 <0>         0.0870
     42 H21         3.0444    4.1253   -6.9376 H         1 <0>         0.0766
     43 H22        -0.6740    6.4106   -5.4479 H         1 <0>         0.0898
     44 H23        -1.3864    4.7939   -5.2314 H         1 <0>         0.1081
     45 H24        -1.3281    5.0429   -2.8006 H         1 <0>         0.0871
     46 H25        -0.4695    6.5952   -2.9465 H         1 <0>         0.0605
     47 H26        -2.1542    6.4543   -3.5033 H         1 <0>         0.0765
     48 H27         1.2465    5.5996   -4.2174 H         1 <0>         0.3962
@<TRIPOS>BOND
     1    1    2 1
     2    1   23 1
     3    1   24 1
     4    1   25 1
     5    2    3 1
     6    2   26 1
     7    2   27 1
     8    3    4 1
     9    3    5 1
    10    3   11 1
    11    5   10 ar
    12    5    6 ar
    13    6    7 ar
    14    6   28 1
    15    7    8 ar
    16    7   29 1
    17    8    9 ar
    18    8   30 1
    19    9   10 ar
    20    9   31 1
    21   10   32 1
    22   11   12 1
    23   11   33 1
    24   12   17 ar
    25   12   13 ar
    26   13   14 ar
    27   13   34 1
    28   14   15 ar
    29   14   35 1
    30   15   16 ar
    31   15   18 1
    32   16   17 ar
    33   16   36 1
    34   17   37 1
    35   18   19 1
    36   18   21 1
    37   18   48 1
    38   19   20 1
    39   19   38 1
    40   19   39 1
    41   20   40 1
    42   20   41 1
    43   20   42 1
    44   21   22 1
    45   21   43 1
    46   21   44 1
    47   22   45 1
    48   22   46 1
    49   22   47 1
@<TRIPOS>MOLECULE
ZINC01019521
   41    43     0     0     0
SMALL
USER_CHARGES
2-anilino-1,2-diphenyl-ethanol
@<TRIPOS>ATOM
      1 C1         -4.7993    2.0675   -3.9522 C.ar      1 <0>        -0.1159
      2 C2         -4.9857    1.1510   -2.9343 C.ar      1 <0>        -0.1165
      3 C3         -4.6347    1.4772   -1.6376 C.ar      1 <0>        -0.0995
      4 C4         -4.0965    2.7196   -1.3590 C.ar      1 <0>        -0.1054
      5 C5         -3.9146    3.6379   -2.3762 C.ar      1 <0>        -0.1099
      6 C6         -4.2615    3.3101   -3.6735 C.ar      1 <0>        -0.1191
      7 C7         -3.7138    3.0752    0.0545 C.3       1 <0>         0.1677
      8 H1         -3.5913    2.1628    0.6382 H         1 <0>         0.0960
      9 C8         -4.8133    3.9365    0.6792 C.3       1 <0>         0.1474
     10 H2         -4.4975    4.2673    1.6686 H         1 <0>         0.1178
     11 C9         -6.0781    3.1262    0.8005 C.ar      1 <0>        -0.1196
     12 C10        -6.8955    2.9520   -0.3006 C.ar      1 <0>        -0.0964
     13 C11        -8.0535    2.2051   -0.1905 C.ar      1 <0>        -0.1168
     14 C12        -8.3990    1.6405    1.0231 C.ar      1 <0>        -0.1139
     15 C13        -7.5841    1.8188    2.1253 C.ar      1 <0>        -0.1189
     16 C14        -6.4239    2.5620    2.0141 C.ar      1 <0>        -0.1064
     17 O1         -5.0547    5.0754   -0.1494 O.3       1 <0>        -0.5501
     18 N1         -2.4537    3.8224    0.0460 N.pl3     1 <0>        -0.7360
     19 C15        -1.2361    3.1382    0.0307 C.ar      1 <0>         0.2179
     20 C16        -1.2183    1.7492    0.0173 C.ar      1 <0>        -0.1944
     21 C17        -0.0126    1.0758    0.0080 C.ar      1 <0>        -0.0737
     22 C18         1.1759    1.7827    0.0004 C.ar      1 <0>        -0.1784
     23 C19         1.1617    3.1655    0.0075 C.ar      1 <0>        -0.0732
     24 C20        -0.0404    3.8451    0.0226 C.ar      1 <0>        -0.1939
     25 H3         -5.0736    1.8127   -4.9652 H         1 <0>         0.1218
     26 H4         -5.4059    0.1802   -3.1520 H         1 <0>         0.1221
     27 H5         -4.7807    0.7612   -0.8423 H         1 <0>         0.1187
     28 H6         -3.4982    4.6101   -2.1578 H         1 <0>         0.1243
     29 H7         -4.1156    4.0260   -4.4688 H         1 <0>         0.1226
     30 H8         -6.6277    3.3965   -1.2477 H         1 <0>         0.1170
     31 H9         -8.6901    2.0655   -1.0517 H         1 <0>         0.1228
     32 H10        -9.3055    1.0598    1.1099 H         1 <0>         0.1231
     33 H11        -7.8540    1.3777    3.0735 H         1 <0>         0.1244
     34 H12        -5.7874    2.7016    2.8754 H         1 <0>         0.1235
     35 H13        -5.3398    4.8555   -1.0468 H         1 <0>         0.3753
     36 H14        -2.4650    4.7923    0.0510 H         1 <0>         0.4044
     37 H15        -2.1462    1.1966    0.0187 H         1 <0>         0.1171
     38 H16         0.0021   -0.0041    0.0020 H         1 <0>         0.1185
     39 H17         2.1174    1.2536   -0.0114 H         1 <0>         0.1170
     40 H18         2.0917    3.7145    0.0009 H         1 <0>         0.1201
     41 H19        -0.0508    4.9251    0.0285 H         1 <0>         0.1187
@<TRIPOS>BOND
     1    1    6 ar
     2    1    2 ar
     3    1   25 1
     4    2    3 ar
     5    2   26 1
     6    3    4 ar
     7    3   27 1
     8    4    5 ar
     9    4    7 1
    10    5    6 ar
    11    5   28 1
    12    6   29 1
    13    7    8 1
    14    7    9 1
    15    7   18 1
    16    9   10 1
    17    9   11 1
    18    9   17 1
    19   11   16 ar
    20   11   12 ar
    21   12   13 ar
    22   12   30 1
    23   13   14 ar
    24   13   31 1
    25   14   15 ar
    26   14   32 1
    27   15   16 ar
    28   15   33 1
    29   16   34 1
    30   17   35 1
    31   18   19 1
    32   18   36 1
    33   19   24 ar
    34   19   20 ar
    35   20   21 ar
    36   20   37 1
    37   21   22 ar
    38   21   38 1
    39   22   23 ar
    40   22   39 1
    41   23   24 ar
    42   23   40 1
    43   24   41 1
@<TRIPOS>MOLECULE
ZINC36197635
   43    43     0     0     0
SMALL
USER_CHARGES

@<TRIPOS>ATOM
      1 C1         -0.0187    1.5258    0.0104 C.3       1 <0>        -0.1473
      2 C2          0.0021   -0.0041    0.0020 C.3       1 <0>        -0.1172
      3 C3          0.7421   -0.5109    1.2415 C.3       1 <0>        -0.1484
      4 C4         -1.4333   -0.5336    0.0129 C.3       1 <0>         0.1306
      5 N1         -1.4164   -1.9929   -0.1155 N.pl3     1 <0>        -0.6245
      6 C5         -1.3576   -2.8331    1.0832 C.3       1 <0>         0.1231
      7 C6         -2.7784   -3.1471    1.5561 C.3       1 <0>        -0.1151
      8 C7         -3.4910   -3.9961    0.5013 C.3       1 <0>        -0.1503
      9 C8         -2.7178   -3.9187    2.8759 C.3       1 <0>        -0.1479
     10 C9         -1.4564   -2.5846   -1.3837 C.ar      1 <0>         0.1670
     11 C10        -1.5064   -1.7880   -2.5203 C.ar      1 <0>        -0.1140
     12 C11        -1.5459   -2.3715   -3.7710 C.ar      1 <0>        -0.1516
     13 C12        -1.5361   -3.7549   -3.8925 C.ar      1 <0>         0.2159
     14 C13        -1.4861   -4.5512   -2.7563 C.ar      1 <0>        -0.2212
     15 C14        -1.4404   -3.9675   -1.5054 C.ar      1 <0>        -0.1069
     16 C15        -1.4759   -6.0524   -2.8881 C.3       1 <0>         0.5113
     17 F1         -1.4231   -6.6319   -1.6159 F         1 <0>        -0.1775
     18 F2         -2.6390   -6.4709   -3.5432 F         1 <0>        -0.1794
     19 F3         -0.3561   -6.4480   -3.6276 F         1 <0>        -0.1797
     20 N2         -1.5770   -4.3466   -5.1607 N.pl3     1 <0>        -0.8773
     21 H1          1.0039    1.9031    0.0027 H         1 <0>         0.0571
     22 H2         -0.5459    1.8868   -0.8726 H         1 <0>         0.0550
     23 H3         -0.5289    1.8773    0.9072 H         1 <0>         0.0554
     24 H4          0.5123   -0.3556   -0.8948 H         1 <0>         0.0731
     25 H5          0.7568   -1.6008    1.2356 H         1 <0>         0.0590
     26 H6          1.7647   -0.1336    1.2338 H         1 <0>         0.0527
     27 H7          0.2319   -0.1594    2.1383 H         1 <0>         0.0526
     28 H8         -1.9156   -0.2570    0.9504 H         1 <0>         0.0735
     29 H9         -1.9862   -0.1019   -0.8214 H         1 <0>         0.0735
     30 H10        -0.8384   -3.7627    0.8502 H         1 <0>         0.0723
     31 H11        -0.8209   -2.3048    1.8712 H         1 <0>         0.0798
     32 H12        -3.3262   -2.2164    1.7041 H         1 <0>         0.0707
     33 H13        -2.9433   -4.9268    0.3533 H         1 <0>         0.0545
     34 H14        -4.5032   -4.2198    0.8382 H         1 <0>         0.0510
     35 H15        -3.5342   -3.4464   -0.4390 H         1 <0>         0.0615
     36 H16        -2.2102   -3.3139    3.6273 H         1 <0>         0.0548
     37 H17        -3.7300   -4.1424    3.2128 H         1 <0>         0.0574
     38 H18        -2.1701   -4.8493    2.7279 H         1 <0>         0.0560
     39 H19        -1.5148   -0.7122   -2.4258 H         1 <0>         0.1307
     40 H20        -1.5848   -1.7521   -4.6549 H         1 <0>         0.1308
     41 H21        -1.3967   -4.5869   -0.6217 H         1 <0>         0.1398
     42 H22        -1.6123   -3.7902   -5.9545 H         1 <0>         0.4027
     43 H23        -1.5702   -5.3128   -5.2456 H         1 <0>         0.3964
@<TRIPOS>BOND
     1    1    2 1
     2    1   21 1
     3    1   22 1
     4    1   23 1
     5    2    3 1
     6    2    4 1
     7    2   24 1
     8    3   25 1
     9    3   26 1
    10    3   27 1
    11    4    5 1
    12    4   28 1
    13    4   29 1
    14    5    6 1
    15    5   10 1
    16    6    7 1
    17    6   30 1
    18    6   31 1
    19    7    8 1
    20    7    9 1
    21    7   32 1
    22    8   33 1
    23    8   34 1
    24    8   35 1
    25    9   36 1
    26    9   37 1
    27    9   38 1
    28   10   15 ar
    29   10   11 ar
    30   11   12 ar
    31   11   39 1
    32   12   13 ar
    33   12   40 1
    34   13   14 ar
    35   13   20 1
    36   14   15 ar
    37   14   16 1
    38   15   41 1
    39   16   17 1
    40   16   18 1
    41   16   19 1
    42   20   42 1
    43   20   43 1
@<TRIPOS>MOLECULE
ZINC38118084
   40    41     0     0     0
SMALL
USER_CHARGES

@<TRIPOS>ATOM
      1 C1         -0.0187    1.5258    0.0104 C.3       1 <0>        -0.1450
      2 C2          0.0021   -0.0041    0.0020 C.3       1 <0>        -0.0594
      3 C3          0.7421   -0.5109    1.2415 C.3       1 <0>        -0.1447
      4 C4         -1.4117   -0.5257    0.0127 C.ar      1 <0>        -0.0697
      5 C5         -2.2591   -0.2043    1.0565 C.ar      1 <0>        -0.1148
      6 C6         -3.5560   -0.6827    1.0663 C.ar      1 <0>        -0.1077
      7 C7         -4.0056   -1.4823    0.0321 C.ar      1 <0>        -0.0963
      8 C8         -3.1585   -1.8029   -1.0121 C.ar      1 <0>        -0.0837
      9 C9         -1.8629   -1.3209   -1.0241 C.ar      1 <0>        -0.1195
     10 C10        -5.4191   -2.0047    0.0433 C.3       1 <0>         0.1952
     11 H1         -6.0272   -1.3932    0.7100 H         1 <0>         0.1002
     12 C11        -5.4234   -3.4537    0.5346 C.3       1 <0>         0.0631
     13 O1         -4.5347   -4.2319   -0.2695 O.3       1 <0>        -0.5622
     14 N1         -5.9718   -1.9470   -1.3122 N.pl3     1 <0>        -0.7280
     15 C12        -7.3539   -1.8657   -1.5002 C.ar      1 <0>         0.2355
     16 C13        -8.2048   -1.8338   -0.4028 C.ar      1 <0>        -0.1998
     17 C14        -9.5705   -1.7535   -0.5917 C.ar      1 <0>        -0.0390
     18 C15       -10.0914   -1.7053   -1.8726 C.ar      1 <0>        -0.1511
     19 C16        -9.2463   -1.7369   -2.9677 C.ar      1 <0>        -0.0388
     20 C17        -7.8794   -1.8109   -2.7848 C.ar      1 <0>        -0.1908
     21 Br1       -11.9621   -1.5967   -2.1271 Br        1 <0>        -0.0612
     22 H2          1.0039    1.9031    0.0027 H         1 <0>         0.0592
     23 H3         -0.5459    1.8868   -0.8726 H         1 <0>         0.0558
     24 H4         -0.5289    1.8773    0.9072 H         1 <0>         0.0568
     25 H5          0.5123   -0.3556   -0.8948 H         1 <0>         0.0775
     26 H6          0.2319   -0.1594    2.1383 H         1 <0>         0.0567
     27 H7          0.7568   -1.6008    1.2356 H         1 <0>         0.0559
     28 H8          1.7647   -0.1336    1.2338 H         1 <0>         0.0591
     29 H9         -1.9079    0.4204    1.8645 H         1 <0>         0.1223
     30 H10        -4.2179   -0.4322    1.8822 H         1 <0>         0.1216
     31 H11        -3.5096   -2.4278   -1.8199 H         1 <0>         0.1224
     32 H12        -1.2022   -1.5684   -1.8418 H         1 <0>         0.1212
     33 H13        -5.0958   -3.4860    1.5737 H         1 <0>         0.0543
     34 H14        -6.4320   -3.8600    0.4588 H         1 <0>         0.0536
     35 H15        -4.4869   -5.1634   -0.0143 H         1 <0>         0.3796
     36 H16        -5.3782   -1.9652   -2.0792 H         1 <0>         0.4041
     37 H17        -7.7988   -1.8722    0.5973 H         1 <0>         0.1274
     38 H18       -10.2326   -1.7287    0.2612 H         1 <0>         0.1306
     39 H19        -9.6558   -1.6995   -3.9663 H         1 <0>         0.1312
     40 H20        -7.2200   -1.8310   -3.6399 H         1 <0>         0.1284
@<TRIPOS>BOND
     1    1    2 1
     2    1   22 1
     3    1   23 1
     4    1   24 1
     5    2    3 1
     6    2    4 1
     7    2   25 1
     8    3   26 1
     9    3   27 1
    10    3   28 1
    11    4    9 ar
    12    4    5 ar
    13    5    6 ar
    14    5   29 1
    15    6    7 ar
    16    6   30 1
    17    7    8 ar
    18    7   10 1
    19    8    9 ar
    20    8   31 1
    21    9   32 1
    22   10   11 1
    23   10   12 1
    24   10   14 1
    25   12   13 1
    26   12   33 1
    27   12   34 1
    28   13   35 1
    29   14   15 1
    30   14   36 1
    31   15   20 ar
    32   15   16 ar
    33   16   17 ar
    34   16   37 1
    35   17   18 ar
    36   17   38 1
    37   18   19 ar
    38   18   21 1
    39   19   20 ar
    40   19   39 1
    41   20   40 1
@<TRIPOS>MOLECULE
ZINC49902924
   49    50     0     0     0
SMALL
USER_CHARGES

@<TRIPOS>ATOM
      1 C1         -0.0261    1.5330    0.0122 C.3       1 <0>        -0.1455
      2 C2         -0.0020    0.0031    0.0117 C.3       1 <0>        -0.0597
      3 C3          0.7318   -0.4958    1.2580 C.3       1 <0>        -0.1452
      4 C4         -1.4148   -0.5215    0.0169 C.ar      1 <0>        -0.0697
      5 C5         -2.2689   -0.1966    1.0541 C.ar      1 <0>        -0.1114
      6 C6         -3.5648   -0.6778    1.0589 C.ar      1 <0>        -0.1038
      7 C7         -4.0067   -1.4835    0.0262 C.ar      1 <0>        -0.1237
      8 C8         -3.1528   -1.8076   -1.0115 C.ar      1 <0>        -0.1056
      9 C9         -1.8583   -1.3229   -1.0184 C.ar      1 <0>        -0.1141
     10 C10        -5.4191   -2.0089    0.0319 C.3       1 <0>         0.1412
     11 H1         -6.0516   -1.3445    0.6207 H         1 <0>         0.1125
     12 C11        -5.4396   -3.4098    0.6466 C.3       1 <0>         0.1000
     13 N1         -6.8127   -3.9206    0.6522 N.pl3     1 <0>        -0.7443
     14 C12        -7.0837   -5.1897    1.1687 C.ar      1 <0>         0.2177
     15 C13        -6.0408   -6.0146    1.5716 C.ar      1 <0>        -0.1967
     16 C14        -6.3122   -7.2685    2.0822 C.ar      1 <0>        -0.0770
     17 C15        -7.6204   -7.7038    2.1924 C.ar      1 <0>        -0.1761
     18 C16        -8.6606   -6.8856    1.7919 C.ar      1 <0>        -0.0691
     19 C17        -8.3965   -5.6277    1.2860 C.ar      1 <0>        -0.1497
     20 C18        -9.5311   -4.7340    0.8561 C.3       1 <0>        -0.0472
     21 C19       -10.4003   -5.4693   -0.1661 C.3       1 <0>        -0.1440
     22 C20       -10.3792   -4.3644    2.0747 C.3       1 <0>        -0.1428
     23 O1         -5.9101   -2.0698   -1.3087 O.3       1 <0>        -0.5500
     24 H2          0.9957    1.9124    0.0084 H         1 <0>         0.0599
     25 H3         -0.5489    1.8884   -0.8757 H         1 <0>         0.0563
     26 H4         -0.5422    1.8879    0.9042 H         1 <0>         0.0571
     27 H5          0.5141   -0.3518   -0.8803 H         1 <0>         0.0783
     28 H6          0.2157   -0.1408    2.1501 H         1 <0>         0.0570
     29 H7          0.7490   -1.5857    1.2577 H         1 <0>         0.0561
     30 H8          1.7537   -0.1164    1.2543 H         1 <0>         0.0599
     31 H9         -1.9236    0.4329    1.8609 H         1 <0>         0.1239
     32 H10        -4.2319   -0.4245    1.8696 H         1 <0>         0.1237
     33 H11        -3.4980   -2.4374   -1.8181 H         1 <0>         0.1201
     34 H12        -1.1923   -1.5731   -1.8310 H         1 <0>         0.1237
     35 H13        -4.8072   -4.0743    0.0579 H         1 <0>         0.0629
     36 H14        -5.0651   -3.3634    1.6692 H         1 <0>         0.0699
     37 H15        -7.5337   -3.3774    0.2971 H         1 <0>         0.4031
     38 H16        -5.0191   -5.6756    1.4851 H         1 <0>         0.1171
     39 H17        -5.5021   -7.9103    2.3956 H         1 <0>         0.1184
     40 H18        -7.8299   -8.6851    2.5918 H         1 <0>         0.1169
     41 H19        -9.6809   -7.2288    1.8787 H         1 <0>         0.1192
     42 H20        -9.1285   -3.8271    0.4051 H         1 <0>         0.0682
     43 H21       -10.8030   -6.3763    0.2849 H         1 <0>         0.0574
     44 H22       -11.2210   -4.8229   -0.4771 H         1 <0>         0.0563
     45 H23        -9.7961   -5.7326   -1.0343 H         1 <0>         0.0548
     46 H24        -9.7600   -3.8406    2.8029 H         1 <0>         0.0538
     47 H25       -11.1999   -3.7180    1.7637 H         1 <0>         0.0563
     48 H26       -10.7818   -5.2714    2.5257 H         1 <0>         0.0572
     49 H27        -5.3943   -2.6444   -1.8908 H         1 <0>         0.3765
@<TRIPOS>BOND
     1    1    2 1
     2    1   24 1
     3    1   25 1
     4    1   26 1
     5    2    3 1
     6    2    4 1
     7    2   27 1
     8    3   28 1
     9    3   29 1
    10    3   30 1
    11    4    9 ar
    12    4    5 ar
    13    5    6 ar
    14    5   31 1
    15    6    7 ar
    16    6   32 1
    17    7    8 ar
    18    7   10 1
    19    8    9 ar
    20    8   33 1
    21    9   34 1
    22   10   11 1
    23   10   12 1
    24   10   23 1
    25   12   13 1
    26   12   35 1
    27   12   36 1
    28   13   14 1
    29   13   37 1
    30   14   19 ar
    31   14   15 ar
    32   15   16 ar
    33   15   38 1
    34   16   17 ar
    35   16   39 1
    36   17   18 ar
    37   17   40 1
    38   18   19 ar
    39   18   41 1
    40   19   20 1
    41   20   21 1
    42   20   22 1
    43   20   42 1
    44   21   43 1
    45   21   44 1
    46   21   45 1
    47   22   46 1
    48   22   47 1
    49   22   48 1
    50   23   49 1
@<TRIPOS>MOLECULE
ZINC61849950
   33    33     0     0     0
SMALL
USER_CHARGES

@<TRIPOS>ATOM
      1 C1         -0.0772    1.4890    0.0727 C.3       1 <0>        -0.1525
      2 C2         -0.0381   -0.0400    0.0324 C.3       1 <0>        -0.1440
      3 C3          0.7008   -0.4983   -1.2265 C.3       1 <0>         0.1115
      4 N1          0.7382   -1.9623   -1.2651 N.pl3     1 <0>        -0.6097
      5 C4         -0.3390   -2.7055   -1.9236 C.3       1 <0>         0.0762
      6 C5          0.0120   -2.9128   -3.3983 C.3       1 <0>         0.4285
      7 F1          1.2053   -3.6364   -3.4964 F         1 <0>        -0.1756
      8 F2         -1.0167   -3.6225   -4.0271 F         1 <0>        -0.1790
      9 F3          0.1682   -1.6693   -4.0198 F         1 <0>        -0.1816
     10 C6          1.7967   -2.6469   -0.6764 C.ar      1 <0>         0.2594
     11 C7          2.8167   -1.9389   -0.0459 C.ar      1 <0>        -0.1928
     12 C8          3.8651   -2.6116    0.5380 C.ar      1 <0>        -0.0208
     13 C9          3.9063   -4.0093    0.4982 C.ar      1 <0>        -0.1661
     14 C10         2.8797   -4.7182   -0.1361 C.ar      1 <0>         0.0777
     15 C11         1.8303   -4.0372   -0.7140 C.ar      1 <0>        -0.2000
     16 Cl1         2.9252   -6.4528   -0.1896 Cl        1 <0>         0.0136
     17 C12         5.0273   -4.7329    1.1218 C.2       1 <0>         0.3906
     18 S1          4.9935   -6.4417    1.2212 S.2       1 <0>        -0.5393
     19 N2          6.0797   -4.0499    1.6141 N.pl3     1 <0>        -0.7739
     20 H1          0.9409    1.8782    0.0870 H         1 <0>         0.0573
     21 H2         -0.5966    1.8625   -0.8098 H         1 <0>         0.0579
     22 H3         -0.6036    1.8155    0.9695 H         1 <0>         0.0611
     23 H4          0.4813   -0.4136    0.9149 H         1 <0>         0.0695
     24 H5         -1.0562   -0.4292    0.0181 H         1 <0>         0.0672
     25 H6          0.1814   -0.1247   -2.1090 H         1 <0>         0.0877
     26 H7          1.7189   -0.1091   -1.2122 H         1 <0>         0.0876
     27 H8         -0.4607   -3.6744   -1.4393 H         1 <0>         0.1269
     28 H9         -1.2688   -2.1418   -1.8471 H         1 <0>         0.1286
     29 H10         2.7849   -0.8598   -0.0156 H         1 <0>         0.1401
     30 H11         4.6556   -2.0612    1.0263 H         1 <0>         0.1336
     31 H12         1.0352   -4.5831   -1.2000 H         1 <0>         0.1400
     32 H13         6.0668   -3.0800    1.6237 H         1 <0>         0.3979
     33 H14         6.8500   -4.5281    1.9588 H         1 <0>         0.4223
@<TRIPOS>BOND
     1    1    2 1
     2    1   20 1
     3    1   21 1
     4    1   22 1
     5    2    3 1
     6    2   23 1
     7    2   24 1
     8    3    4 1
     9    3   25 1
    10    3   26 1
    11    4    5 1
    12    4   10 1
    13    5    6 1
    14    5   27 1
    15    5   28 1
    16    6    7 1
    17    6    8 1
    18    6    9 1
    19   10   15 ar
    20   10   11 ar
    21   11   12 ar
    22   11   29 1
    23   12   13 ar
    24   12   30 1
    25   13   14 ar
    26   13   17 1
    27   14   15 ar
    28   14   16 1
    29   15   31 1
    30   17   18 2
    31   17   19 1
    32   19   32 1
    33   19   33 1
@<TRIPOS>MOLECULE
ZINC03197740
   56    57     0     0     0
SMALL
USER_CHARGES
5-[5-(hydroxymethyl)-5,8a-dimethyl-2-methylene-decalin-1-yl]-3-methyl-pent-1-en-3-ol
@<TRIPOS>ATOM
      1 C1         -4.8442    4.5737   -2.3112 C.3       1 <0>        -0.1476
      2 C2         -4.1663    3.2043   -2.4114 C.3       1 <0>        -0.0444
      3 C3         -3.0193    3.2578   -3.4162 C.3       1 <0>        -0.1017
      4 C4         -1.8287    4.0357   -2.8669 C.3       1 <0>        -0.1191
      5 C5         -1.3476    3.3939   -1.5679 C.3       1 <0>        -0.1076
      6 C6         -2.4688    3.4006   -0.5275 C.3       1 <0>        -0.0333
      7 C7         -3.6977    2.6764   -1.0553 C.3       1 <0>        -0.0459
      8 H1         -4.5224    2.8038   -0.3367 H         1 <0>         0.0678
      9 C8         -3.4248    1.1738   -1.1964 C.3       1 <0>        -0.1185
     10 C9         -3.0442    0.5533    0.1527 C.3       1 <0>        -0.0901
     11 C10        -1.8255    1.2894    0.6592 C.2       1 <0>        -0.1028
     12 C11        -0.7327    0.6461    0.9862 C.2       1 <0>        -0.2000
     13 C12        -1.9254    2.7859    0.7718 C.3       1 <0>        -0.0450
     14 H2         -0.9262    3.2003    0.9545 H         1 <0>         0.0706
     15 C13        -2.8350    3.1714    1.9399 C.3       1 <0>        -0.1121
     16 C14        -2.2089    2.6957    3.2524 C.3       1 <0>        -0.1383
     17 C15        -3.1186    3.0813    4.4206 C.3       1 <0>         0.1584
     18 C16        -4.4874    2.4220    4.2402 C.3       1 <0>        -0.1361
     19 C17        -2.5019    2.6127    5.7134 C.2       1 <0>        -0.1872
     20 C18        -2.2010    3.4802    6.6478 C.2       1 <0>        -0.1834
     21 O1         -3.2745    4.5013    4.4544 O.3       1 <0>        -0.5543
     22 C19        -2.7855    4.8603   -0.1553 C.3       1 <0>        -0.1536
     23 C20        -5.2414    2.2593   -2.9958 C.3       1 <0>         0.0748
     24 O2         -5.6755    2.7575   -4.2628 O.3       1 <0>        -0.5696
     25 H3         -4.1014    5.3288   -2.0538 H         1 <0>         0.0626
     26 H4         -5.3002    4.8243   -3.2690 H         1 <0>         0.0655
     27 H5         -5.6134    4.5428   -1.5396 H         1 <0>         0.0493
     28 H6         -2.7044    2.2396   -3.6604 H         1 <0>         0.0562
     29 H7         -3.3692    3.7376   -4.3353 H         1 <0>         0.0672
     30 H8         -1.0128    3.9952   -3.6011 H         1 <0>         0.0560
     31 H9         -2.0887    5.0783   -2.7137 H         1 <0>         0.0654
     32 H10        -1.0378    2.3657   -1.7612 H         1 <0>         0.0628
     33 H11        -0.4942    3.9539   -1.1797 H         1 <0>         0.0585
     34 H12        -2.6122    1.0178   -1.9059 H         1 <0>         0.0670
     35 H13        -4.3095    0.6339   -1.5346 H         1 <0>         0.0639
     36 H14        -2.8079   -0.5017    0.0159 H         1 <0>         0.0666
     37 H15        -3.8684    0.6595    0.8542 H         1 <0>         0.0724
     38 H16        -0.6917   -0.4293    0.8958 H         1 <0>         0.0957
     39 H17         0.1289    1.1914    1.3419 H         1 <0>         0.0946
     40 H18        -2.9539    4.2546    1.9657 H         1 <0>         0.0809
     41 H19        -3.8102    2.7018    1.8114 H         1 <0>         0.0662
     42 H20        -2.0900    1.6125    3.2266 H         1 <0>         0.0740
     43 H21        -1.2337    3.1654    3.3810 H         1 <0>         0.0618
     44 H22        -4.3685    1.3389    4.2144 H         1 <0>         0.0692
     45 H23        -5.1355    2.6967    5.0724 H         1 <0>         0.0611
     46 H24        -4.9335    2.7609    3.3051 H         1 <0>         0.0679
     47 H25        -2.3080    1.5618    5.8695 H         1 <0>         0.1136
     48 H26        -1.7591    3.1444    7.5742 H         1 <0>         0.0990
     49 H27        -2.3949    4.5311    6.4917 H         1 <0>         0.1039
     50 H28        -2.4450    4.9855    4.5668 H         1 <0>         0.3742
     51 H29        -3.7258    4.8993    0.3945 H         1 <0>         0.0592
     52 H30        -1.9840    5.2587    0.4669 H         1 <0>         0.0547
     53 H31        -2.8708    5.4566   -1.0637 H         1 <0>         0.0630
     54 H32        -4.8188    1.2626   -3.1227 H         1 <0>         0.0471
     55 H33        -6.0907    2.2098   -2.3144 H         1 <0>         0.0420
     56 H34        -6.3517    2.2130   -4.6888 H         1 <0>         0.3775
@<TRIPOS>BOND
     1    1    2 1
     2    1   25 1
     3    1   26 1
     4    1   27 1
     5    2    7 1
     6    2    3 1
     7    2   23 1
     8    3    4 1
     9    3   28 1
    10    3   29 1
    11    4    5 1
    12    4   30 1
    13    4   31 1
    14    5    6 1
    15    5   32 1
    16    5   33 1
    17    6   13 1
    18    6    7 1
    19    6   22 1
    20    7    8 1
    21    7    9 1
    22    9   10 1
    23    9   34 1
    24    9   35 1
    25   10   11 1
    26   10   36 1
    27   10   37 1
    28   11   12 2
    29   11   13 1
    30   12   38 1
    31   12   39 1
    32   13   14 1
    33   13   15 1
    34   15   16 1
    35   15   40 1
    36   15   41 1
    37   16   17 1
    38   16   42 1
    39   16   43 1
    40   17   18 1
    41   17   19 1
    42   17   21 1
    43   18   44 1
    44   18   45 1
    45   18   46 1
    46   19   20 2
    47   19   47 1
    48   20   48 1
    49   20   49 1
    50   21   50 1
    51   22   51 1
    52   22   52 1
    53   22   53 1
    54   23   24 1
    55   23   54 1
    56   23   55 1
    57   24   56 1
@<TRIPOS>MOLECULE
ZINC36791506
   39    39     0     0     0
SMALL
USER_CHARGES

@<TRIPOS>ATOM
      1 C1         -0.2693    1.4045   -0.1335 C.3       1 <0>        -0.1527
      2 C2         -0.2234   -0.1231   -0.0594 C.3       1 <0>        -0.1238
      3 C3         -1.6379   -0.6661    0.1530 C.3       1 <0>        -0.1329
      4 C4         -1.5919   -2.1936    0.2272 C.3       1 <0>         0.1341
      5 H1         -1.1051   -2.5863   -0.6655 H         1 <0>         0.0960
      6 C5         -3.0172   -2.7431    0.3144 C.3       1 <0>        -0.1648
      7 N1         -0.8375   -2.6024    1.4146 N.pl3     1 <0>        -0.6060
      8 C6         -1.2408   -2.1241    2.7393 C.3       1 <0>         0.0820
      9 C7          0.2620   -3.4448    1.2842 C.ar      1 <0>         0.2566
     10 C8          0.9032   -3.9308    2.4205 C.ar      1 <0>        -0.1836
     11 C9          1.9906   -4.7646    2.2952 C.ar      1 <0>        -0.0290
     12 C10         2.4516   -5.1238    1.0246 C.ar      1 <0>        -0.1311
     13 C11         1.8053   -4.6339   -0.1144 C.ar      1 <0>        -0.0603
     14 C12         0.7148   -3.8045    0.0183 C.ar      1 <0>        -0.1638
     15 C13         2.2987   -5.0178   -1.4856 C.3       1 <0>         0.5149
     16 F1          1.4150   -4.5281   -2.4532 F         1 <0>        -0.1884
     17 F2          3.5690   -4.4700   -1.6943 F         1 <0>        -0.1393
     18 F3          2.3704   -6.4116   -1.5821 F         1 <0>        -0.1498
     19 C14         3.6161   -6.0160    0.8865 C.2       1 <0>         0.3454
     20 S1          4.3553   -6.2282   -0.6430 S.2       1 <0>        -0.5003
     21 N2          4.0992   -6.6651    1.9644 N.pl3     1 <0>        -0.7740
     22 H2          0.7384    1.7914   -0.2848 H         1 <0>         0.0551
     23 H3         -0.9042    1.7089   -0.9657 H         1 <0>         0.0547
     24 H4         -0.6750    1.8014    0.7971 H         1 <0>         0.0523
     25 H5          0.1823   -0.5200   -0.9900 H         1 <0>         0.0624
     26 H6          0.4114   -0.4275    0.7728 H         1 <0>         0.0619
     27 H7         -2.0435   -0.2692    1.0836 H         1 <0>         0.0693
     28 H8         -2.2727   -0.3617   -0.6791 H         1 <0>         0.0783
     29 H9         -3.5040   -2.3505    1.2071 H         1 <0>         0.0603
     30 H10        -3.5785   -2.4390   -0.5691 H         1 <0>         0.0713
     31 H11        -2.9845   -3.8313    0.3672 H         1 <0>         0.0612
     32 H12        -1.9543   -2.8228    3.1762 H         1 <0>         0.0563
     33 H13        -0.3634   -2.0513    3.3819 H         1 <0>         0.0723
     34 H14        -1.7048   -1.1423    2.6453 H         1 <0>         0.0767
     35 H15         0.5468   -3.6527    3.4014 H         1 <0>         0.1397
     36 H16         2.4877   -5.1409    3.1771 H         1 <0>         0.1335
     37 H17         0.2124   -3.4293   -0.8610 H         1 <0>         0.1481
     38 H18         3.6804   -6.5448    2.8310 H         1 <0>         0.3961
     39 H19         4.8658   -7.2524    1.8735 H         1 <0>         0.4213
@<TRIPOS>BOND
     1    1    2 1
     2    1   22 1
     3    1   23 1
     4    1   24 1
     5    2    3 1
     6    2   25 1
     7    2   26 1
     8    3    4 1
     9    3   27 1
    10    3   28 1
    11    4    5 1
    12    4    6 1
    13    4    7 1
    14    6   29 1
    15    6   30 1
    16    6   31 1
    17    7    8 1
    18    7    9 1
    19    8   32 1
    20    8   33 1
    21    8   34 1
    22    9   14 ar
    23    9   10 ar
    24   10   11 ar
    25   10   35 1
    26   11   12 ar
    27   11   36 1
    28   12   13 ar
    29   12   19 1
    30   13   14 ar
    31   13   15 1
    32   14   37 1
    33   15   16 1
    34   15   17 1
    35   15   18 1
    36   19   20 2
    37   19   21 1
    38   21   38 1
    39   21   39 1
@<TRIPOS>MOLECULE
ZINC38118083
   40    41     0     0     0
SMALL
USER_CHARGES

@<TRIPOS>ATOM
      1 C1         -0.0187    1.5258    0.0104 C.3       1 <0>        -0.1448
      2 C2          0.0021   -0.0041    0.0020 C.3       1 <0>        -0.0594
      3 C3          0.7421   -0.5109    1.2415 C.3       1 <0>        -0.1449
      4 C4         -1.4117   -0.5257    0.0127 C.ar      1 <0>        -0.0697
      5 C5         -2.2591   -0.2043    1.0565 C.ar      1 <0>        -0.1148
      6 C6         -3.5560   -0.6827    1.0663 C.ar      1 <0>        -0.1077
      7 C7         -4.0056   -1.4823    0.0321 C.ar      1 <0>        -0.0962
      8 C8         -3.1585   -1.8029   -1.0121 C.ar      1 <0>        -0.0837
      9 C9         -1.8629   -1.3209   -1.0241 C.ar      1 <0>        -0.1194
     10 C10        -5.4191   -2.0047    0.0433 C.3       1 <0>         0.1953
     11 H1         -5.8132   -1.9648    1.0588 H         1 <0>         0.1002
     12 C11        -6.2884   -1.1436   -0.8753 C.3       1 <0>         0.0630
     13 O1         -5.7067   -1.1018   -2.1799 O.3       1 <0>        -0.5622
     14 N1         -5.4312   -3.3907   -0.4311 N.pl3     1 <0>        -0.7280
     15 C12        -6.4601   -4.2528   -0.0433 C.ar      1 <0>         0.2354
     16 C13        -7.4752   -3.7956    0.7873 C.ar      1 <0>        -0.1998
     17 C14        -8.4908   -4.6501    1.1689 C.ar      1 <0>        -0.0390
     18 C15        -8.4976   -5.9605    0.7251 C.ar      1 <0>        -0.1511
     19 C16        -7.4879   -6.4188   -0.1024 C.ar      1 <0>        -0.0388
     20 C17        -6.4729   -5.5672   -0.4923 C.ar      1 <0>        -0.1907
     21 Br1        -9.8894   -7.1277    1.2509 Br        1 <0>        -0.0612
     22 H2          1.0039    1.9031    0.0027 H         1 <0>         0.0591
     23 H3         -0.5459    1.8868   -0.8726 H         1 <0>         0.0559
     24 H4         -0.5289    1.8773    0.9072 H         1 <0>         0.0567
     25 H5          0.5123   -0.3556   -0.8948 H         1 <0>         0.0775
     26 H6          0.2319   -0.1594    2.1383 H         1 <0>         0.0568
     27 H7          0.7568   -1.6008    1.2356 H         1 <0>         0.0558
     28 H8          1.7647   -0.1336    1.2338 H         1 <0>         0.0592
     29 H9         -1.9079    0.4204    1.8645 H         1 <0>         0.1223
     30 H10        -4.2179   -0.4322    1.8822 H         1 <0>         0.1216
     31 H11        -3.5096   -2.4278   -1.8199 H         1 <0>         0.1223
     32 H12        -1.2022   -1.5684   -1.8418 H         1 <0>         0.1212
     33 H13        -7.2883   -1.5732   -0.9369 H         1 <0>         0.0537
     34 H14        -6.3514   -0.1325   -0.4730 H         1 <0>         0.0543
     35 H15        -6.2061   -0.5720   -2.8163 H         1 <0>         0.3796
     36 H16        -4.7250   -3.7099   -1.0144 H         1 <0>         0.4041
     37 H17        -7.4700   -2.7730    1.1346 H         1 <0>         0.1274
     38 H18        -9.2803   -4.2951    1.8147 H         1 <0>         0.1306
     39 H19        -7.4956   -7.4423   -0.4470 H         1 <0>         0.1312
     40 H20        -5.6874   -5.9242   -1.1418 H         1 <0>         0.1284
@<TRIPOS>BOND
     1    1    2 1
     2    1   22 1
     3    1   23 1
     4    1   24 1
     5    2    3 1
     6    2    4 1
     7    2   25 1
     8    3   26 1
     9    3   27 1
    10    3   28 1
    11    4    9 ar
    12    4    5 ar
    13    5    6 ar
    14    5   29 1
    15    6    7 ar
    16    6   30 1
    17    7    8 ar
    18    7   10 1
    19    8    9 ar
    20    8   31 1
    21    9   32 1
    22   10   11 1
    23   10   12 1
    24   10   14 1
    25   12   13 1
    26   12   33 1
    27   12   34 1
    28   13   35 1
    29   14   15 1
    30   14   36 1
    31   15   20 ar
    32   15   16 ar
    33   16   17 ar
    34   16   37 1
    35   17   18 ar
    36   17   38 1
    37   18   19 ar
    38   18   21 1
    39   19   20 ar
    40   19   39 1
    41   20   40 1
@<TRIPOS>MOLECULE
ZINC49903265
   49    50     0     0     0
SMALL
USER_CHARGES

@<TRIPOS>ATOM
      1 C1         -0.0187    1.5258    0.0104 C.3       1 <0>        -0.1554
      2 C2          0.0021   -0.0041    0.0020 C.3       1 <0>        -0.1161
      3 C3         -1.4333   -0.5336    0.0129 C.3       1 <0>        -0.0548
      4 H1         -1.9701   -0.1109    0.8621 H         1 <0>         0.0780
      5 C4         -2.1352   -0.1312   -1.2857 C.3       1 <0>        -0.1461
      6 C5         -1.4136   -2.0361    0.1285 C.ar      1 <0>        -0.0722
      7 C6         -0.7798   -2.7953   -0.8374 C.ar      1 <0>        -0.1111
      8 C7         -0.7617   -4.1735   -0.7313 C.ar      1 <0>        -0.1070
      9 C8         -1.3769   -4.7924    0.3407 C.ar      1 <0>        -0.1228
     10 C9         -2.0099   -4.0331    1.3070 C.ar      1 <0>        -0.1084
     11 C10        -2.0243   -2.6547    1.2033 C.ar      1 <0>        -0.1140
     12 C11        -1.3580   -6.2949    0.4558 C.3       1 <0>         0.1540
     13 H2         -0.4975   -6.6898   -0.0841 H         1 <0>         0.1102
     14 C12        -2.6435   -6.8685   -0.1438 C.3       1 <0>        -0.1573
     15 C13        -2.5701   -8.3967   -0.1405 C.3       1 <0>         0.1287
     16 N1         -3.8009   -8.9460   -0.7147 N.pl3     1 <0>        -0.7515
     17 C14        -3.9668  -10.3290   -0.8180 C.ar      1 <0>         0.2096
     18 C15        -2.9681  -11.1851   -0.3716 C.ar      1 <0>        -0.1933
     19 C16        -3.1356  -12.5521   -0.4748 C.ar      1 <0>        -0.0725
     20 C17        -4.2956  -13.0688   -1.0223 C.ar      1 <0>        -0.1463
     21 C18        -5.2917  -12.2193   -1.4677 C.ar      1 <0>        -0.0727
     22 C19        -5.1332  -10.8514   -1.3622 C.ar      1 <0>        -0.1930
     23 C20        -4.4743  -14.5609   -1.1342 C.3       1 <0>        -0.1072
     24 O1         -1.2678   -6.6660    1.8328 O.3       1 <0>        -0.5520
     25 H3          1.0039    1.9031    0.0027 H         1 <0>         0.0553
     26 H4         -0.5459    1.8868   -0.8726 H         1 <0>         0.0576
     27 H5         -0.5289    1.8773    0.9072 H         1 <0>         0.0543
     28 H6          0.5123   -0.3556   -0.8948 H         1 <0>         0.0636
     29 H7          0.5293   -0.3651    0.8851 H         1 <0>         0.0629
     30 H8         -3.1578   -0.5085   -1.2779 H         1 <0>         0.0551
     31 H9         -2.1495    0.9555   -1.3693 H         1 <0>         0.0622
     32 H10        -1.5984   -0.5539   -2.1349 H         1 <0>         0.0566
     33 H11        -0.2992   -2.3118   -1.6750 H         1 <0>         0.1228
     34 H12        -0.2672   -4.7667   -1.4863 H         1 <0>         0.1230
     35 H13        -2.4908   -4.5166    2.1444 H         1 <0>         0.1193
     36 H14        -2.5156   -2.0613    1.9601 H         1 <0>         0.1225
     37 H15        -3.4978   -6.5445    0.4506 H         1 <0>         0.0742
     38 H16        -2.7572   -6.5124   -1.1677 H         1 <0>         0.0806
     39 H17        -1.7158   -8.7207   -0.7349 H         1 <0>         0.0592
     40 H18        -2.4563   -8.7528    0.8834 H         1 <0>         0.0673
     41 H19        -4.5006   -8.3492   -1.0231 H         1 <0>         0.3978
     42 H20        -2.0616  -10.7822    0.0554 H         1 <0>         0.1200
     43 H21        -2.3595  -13.2183   -0.1280 H         1 <0>         0.1197
     44 H22        -6.1965  -12.6261   -1.8947 H         1 <0>         0.1198
     45 H23        -5.9135  -10.1886   -1.7061 H         1 <0>         0.1179
     46 H24        -4.9493  -14.9389   -0.2289 H         1 <0>         0.0638
     47 H25        -5.1021  -14.7880   -1.9958 H         1 <0>         0.0614
     48 H26        -3.5009  -15.0352   -1.2589 H         1 <0>         0.0616
     49 H27        -2.0024   -6.3476    2.3750 H         1 <0>         0.3747
@<TRIPOS>BOND
     1    1    2 1
     2    1   25 1
     3    1   26 1
     4    1   27 1
     5    2    3 1
     6    2   28 1
     7    2   29 1
     8    3    4 1
     9    3    5 1
    10    3    6 1
    11    5   30 1
    12    5   31 1
    13    5   32 1
    14    6   11 ar
    15    6    7 ar
    16    7    8 ar
    17    7   33 1
    18    8    9 ar
    19    8   34 1
    20    9   10 ar
    21    9   12 1
    22   10   11 ar
    23   10   35 1
    24   11   36 1
    25   12   13 1
    26   12   14 1
    27   12   24 1
    28   14   15 1
    29   14   37 1
    30   14   38 1
    31   15   16 1
    32   15   39 1
    33   15   40 1
    34   16   17 1
    35   16   41 1
    36   17   22 ar
    37   17   18 ar
    38   18   19 ar
    39   18   42 1
    40   19   20 ar
    41   19   43 1
    42   20   21 ar
    43   20   23 1
    44   21   22 ar
    45   21   44 1
    46   22   45 1
    47   23   46 1
    48   23   47 1
    49   23   48 1
    50   24   49 1
@<TRIPOS>MOLECULE
ZINC52908563
   30    31     0     0     0
SMALL
USER_CHARGES

@<TRIPOS>ATOM
      1 C1         -0.0194    1.3752    0.0101 C.ar      1 <0>        -0.0428
      2 C2          1.1613    2.0925   -0.0073 C.ar      1 <0>        -0.2033
      3 C3          2.3781    1.4292   -0.0232 C.ar      1 <0>         0.1847
      4 C4          2.4054    0.0270   -0.0210 C.ar      1 <0>        -0.1331
      5 C5          1.2032   -0.6871   -0.0027 C.ar      1 <0>         0.0314
      6 C6          0.0013   -0.0090    0.0124 C.ar      1 <0>        -0.1443
      7 Cl1         1.2225   -2.4230    0.0002 Cl        1 <0>        -0.0400
      8 C7          3.6924   -0.6891   -0.0382 C.2       1 <0>         0.4108
      9 S1          4.5191   -0.9993    1.4285 S.2       1 <0>        -0.5203
     10 N1          4.2193   -1.1002   -1.2086 N.pl3     1 <0>        -0.7515
     11 O1          3.5378    2.1333   -0.0412 O.3       1 <0>        -0.3011
     12 C8          3.4316    3.5583   -0.0428 C.3       1 <0>         0.0629
     13 C9          4.8321    4.1741   -0.0641 C.3       1 <0>        -0.0322
     14 C10         4.7201    5.6769   -0.0658 C.2       1 <0>        -0.1499
     15 C11         4.6772    6.5309    0.9859 C.2       1 <0>        -0.1464
     16 C12         4.5721    7.8877    0.7439 C.2       1 <0>        -0.1585
     17 C13         4.5151    8.3242   -0.5381 C.2       1 <0>        -0.1665
     18 S2          4.6174    6.7951   -1.4538 S.3       1 <0>         0.0371
     19 H1         -0.9645    1.8977    0.0266 H         1 <0>         0.1445
     20 H2          1.1360    3.1722   -0.0090 H         1 <0>         0.1439
     21 H3         -0.9271   -0.5606    0.0260 H         1 <0>         0.1460
     22 H4          3.7895   -0.8608   -2.0446 H         1 <0>         0.4043
     23 H5          5.0282   -1.6354   -1.2150 H         1 <0>         0.4241
     24 H6          2.8796    3.8805   -0.9258 H         1 <0>         0.0714
     25 H7          2.9049    3.8844    0.8540 H         1 <0>         0.0751
     26 H8          5.3841    3.8519    0.8188 H         1 <0>         0.1023
     27 H9          5.3588    3.8479   -0.9610 H         1 <0>         0.0914
     28 H10         4.7241    6.1567    1.9980 H         1 <0>         0.1359
     29 H11         4.5356    8.5895    1.5640 H         1 <0>         0.1365
     30 H12         4.4331    9.3351   -0.9094 H         1 <0>         0.1875
@<TRIPOS>BOND
     1    1    6 ar
     2    1    2 ar
     3    1   19 1
     4    2    3 ar
     5    2   20 1
     6    3    4 ar
     7    3   11 1
     8    4    5 ar
     9    4    8 1
    10    5    6 ar
    11    5    7 1
    12    6   21 1
    13    8    9 2
    14    8   10 1
    15   10   22 1
    16   10   23 1
    17   11   12 1
    18   12   13 1
    19   12   24 1
    20   12   25 1
    21   13   14 1
    22   13   26 1
    23   13   27 1
    24   14   18 1
    25   14   15 2
    26   15   16 1
    27   15   28 1
    28   16   17 2
    29   16   29 1
    30   17   18 1
    31   17   30 1
@<TRIPOS>MOLECULE
ZINC64638114
   43    44     0     0     0
SMALL
USER_CHARGES

@<TRIPOS>ATOM
      1 C1          1.2560    1.5361   -0.0879 C.3       1 <0>        -0.1533
      2 C2          0.6709    0.1246   -0.1667 C.3       1 <0>        -0.0863
      3 C3          1.3827   -0.7796    0.8416 C.3       1 <0>        -0.1417
      4 C4         -0.8235    0.1731    0.1579 C.3       1 <0>        -0.1464
      5 C5          0.8684   -0.4313   -1.5784 C.3       1 <0>         0.1784
      6 C6          2.3354   -0.4178   -1.9230 C.2       1 <0>        -0.1121
      7 C7          3.2276   -1.4379   -1.8973 C.2       1 <0>        -0.1677
      8 C8          4.5385   -1.1912   -2.2597 C.2       1 <0>        -0.1551
      9 C9          4.8931    0.0636   -2.6300 C.2       1 <0>        -0.1925
     10 S1          3.3474    0.9440   -2.4783 S.3       1 <0>         0.0676
     11 N1          0.1320    0.4005   -2.5396 N.3       1 <0>        -0.6770
     12 C10        -1.0703   -0.2919   -3.0222 C.3       1 <0>         0.0309
     13 C11        -1.7530    0.5592   -4.0948 C.3       1 <0>         0.1514
     14 C12        -2.9865   -0.1511   -4.5900 C.ar      1 <0>        -0.0885
     15 C13        -4.1836   -0.0107   -3.9125 C.ar      1 <0>        -0.1235
     16 C14        -5.3157   -0.6616   -4.3655 C.ar      1 <0>        -0.0851
     17 C15        -5.2522   -1.4540   -5.4961 C.ar      1 <0>        -0.1529
     18 C16        -4.0541   -1.5953   -6.1753 C.ar      1 <0>         0.1033
     19 C17        -2.9219   -0.9379   -5.7240 C.ar      1 <0>        -0.1429
     20 F1         -3.9907   -2.3700   -7.2803 F         1 <0>        -0.1369
     21 O1         -2.1221    1.8221   -3.5373 O.3       1 <0>        -0.5467
     22 H1          2.3207    1.5015   -0.3192 H         1 <0>         0.0689
     23 H2          0.7489    2.1803   -0.8062 H         1 <0>         0.0583
     24 H3          1.1154    1.9321    0.9178 H         1 <0>         0.0604
     25 H4          1.2421   -0.3836    1.8473 H         1 <0>         0.0586
     26 H5          0.9659   -1.7852    0.7855 H         1 <0>         0.0549
     27 H6          2.4474   -0.8142    0.6103 H         1 <0>         0.0618
     28 H7         -1.3353    0.7926   -0.5786 H         1 <0>         0.0539
     29 H8         -1.2339   -0.8363    0.1319 H         1 <0>         0.0569
     30 H9         -0.9658    0.5977    1.1517 H         1 <0>         0.0645
     31 H10         0.4943   -1.4541   -1.6217 H         1 <0>         0.0906
     32 H11         2.9189   -2.4286   -1.5979 H         1 <0>         0.1270
     33 H12         5.2694   -1.9862   -2.2476 H         1 <0>         0.1290
     34 H13         5.8591    0.4338   -2.9402 H         1 <0>         0.1813
     35 H14        -0.1031    1.2956   -2.1376 H         1 <0>         0.3542
     36 H15        -0.7888   -1.2552   -3.4475 H         1 <0>         0.0854
     37 H16        -1.7577   -0.4487   -2.1909 H         1 <0>         0.0425
     38 H17        -1.0657    0.7160   -4.9262 H         1 <0>         0.1205
     39 H18        -4.2340    0.6077   -3.0285 H         1 <0>         0.1270
     40 H19        -6.2502   -0.5512   -3.8355 H         1 <0>         0.1355
     41 H20        -6.1367   -1.9631   -5.8495 H         1 <0>         0.1372
     42 H21        -1.9878   -1.0438   -6.2555 H         1 <0>         0.1384
     43 H22        -2.7339    1.7589   -2.7911 H         1 <0>         0.3705
@<TRIPOS>BOND
     1    1    2 1
     2    1   22 1
     3    1   23 1
     4    1   24 1
     5    2    3 1
     6    2    4 1
     7    2    5 1
     8    3   25 1
     9    3   26 1
    10    3   27 1
    11    4   28 1
    12    4   29 1
    13    4   30 1
    14    5    6 1
    15    5   11 1
    16    5   31 1
    17    6   10 1
    18    6    7 2
    19    7    8 1
    20    7   32 1
    21    8    9 2
    22    8   33 1
    23    9   10 1
    24    9   34 1
    25   11   12 1
    26   11   35 1
    27   12   13 1
    28   12   36 1
    29   12   37 1
    30   13   14 1
    31   13   21 1
    32   13   38 1
    33   14   19 ar
    34   14   15 ar
    35   15   16 ar
    36   15   39 1
    37   16   17 ar
    38   16   40 1
    39   17   18 ar
    40   17   41 1
    41   18   19 ar
    42   18   20 1
    43   19   42 1
    44   21   43 1
@<TRIPOS>MOLECULE
ZINC03267477
   46    47     0     0     0
SMALL
USER_CHARGES
3-[(4-tert-butylphenyl)methyleneamino]-1-(o-tolyl)thiourea
@<TRIPOS>ATOM
      1 C1         -2.2680    5.4136   -0.9902 C.3       1 <0>        -0.1183
      2 C2         -1.1109    6.1315   -0.3446 C.ar      1 <0>        -0.0855
      3 C3         -1.1280    7.5080   -0.2308 C.ar      1 <0>        -0.1162
      4 C4         -0.0672    8.1673    0.3622 C.ar      1 <0>        -0.1071
      5 C5          1.0141    7.4515    0.8433 C.ar      1 <0>        -0.1162
      6 C6          1.0354    6.0749    0.7365 C.ar      1 <0>        -0.0679
      7 C7         -0.0265    5.4098    0.1369 C.ar      1 <0>         0.1178
      8 N1         -0.0063    4.0159    0.0237 N.pl3     1 <0>        -0.6087
      9 C8          1.1164    3.3888   -0.3797 C.2       1 <0>         0.5856
     10 S1          2.4721    4.3028   -0.8873 S.2       1 <0>        -0.5927
     11 N2          1.1718    2.0422   -0.3834 N.pl3     1 <0>        -0.5347
     12 N3          0.0624    1.2943    0.0321 N.2       1 <0>        -0.2933
     13 C9          0.1158   -0.0023    0.0285 C.2       1 <0>         0.1609
     14 C10        -1.0521   -0.7896    0.4658 C.ar      1 <0>        -0.0772
     15 C11        -2.2154   -0.1429    0.8900 C.ar      1 <0>        -0.0704
     16 C12        -3.3053   -0.8857    1.2935 C.ar      1 <0>        -0.1280
     17 C13        -3.2448   -2.2681    1.2884 C.ar      1 <0>        -0.0419
     18 C14        -2.0942   -2.9153    0.8740 C.ar      1 <0>        -0.1204
     19 C15        -0.9982   -2.1854    0.4633 C.ar      1 <0>        -0.0771
     20 C16        -4.4377   -3.0726    1.7367 C.3       1 <0>        -0.0349
     21 C17        -4.0468   -3.9397    2.9350 C.3       1 <0>        -0.1403
     22 C18        -5.5693   -2.1252    2.1402 C.3       1 <0>        -0.1473
     23 C19        -4.9080   -3.9696    0.5899 C.3       1 <0>        -0.1403
     24 H1         -3.0073    5.1594   -0.2307 H         1 <0>         0.0727
     25 H2         -2.7244    6.0604   -1.7395 H         1 <0>         0.0751
     26 H3         -1.9091    4.5017   -1.4675 H         1 <0>         0.0605
     27 H4         -1.9710    8.0698   -0.6051 H         1 <0>         0.1277
     28 H5         -0.0831    9.2436    0.4504 H         1 <0>         0.1259
     29 H6          1.8408    7.9695    1.3066 H         1 <0>         0.1285
     30 H7          1.8783    5.5163    1.1158 H         1 <0>         0.1377
     31 H8         -0.8004    3.5006    0.2354 H         1 <0>         0.4169
     32 H9          1.9798    1.5909   -0.6737 H         1 <0>         0.4192
     33 H10         1.0154   -0.5048   -0.2947 H         1 <0>         0.1298
     34 H11        -2.2624    0.9360    0.8987 H         1 <0>         0.1297
     35 H12        -4.2068   -0.3871    1.6178 H         1 <0>         0.1331
     36 H13        -2.0539   -3.9946    0.8726 H         1 <0>         0.1294
     37 H14        -0.1005   -2.6919    0.1408 H         1 <0>         0.1310
     38 H15        -3.7117   -3.3007    3.7520 H         1 <0>         0.0576
     39 H16        -4.9096   -4.5216    3.2593 H         1 <0>         0.0617
     40 H17        -3.2406   -4.6147    2.6476 H         1 <0>         0.0585
     41 H18        -5.8478   -1.5074    1.2864 H         1 <0>         0.0599
     42 H19        -6.4321   -2.7071    2.4644 H         1 <0>         0.0614
     43 H20        -5.2342   -1.4862    2.9572 H         1 <0>         0.0599
     44 H21        -4.1018   -4.6445    0.3024 H         1 <0>         0.0585
     45 H22        -5.7708   -4.5514    0.9141 H         1 <0>         0.0617
     46 H23        -5.1865   -3.3518   -0.2639 H         1 <0>         0.0575
@<TRIPOS>BOND
     1    1    2 1
     2    1   24 1
     3    1   25 1
     4    1   26 1
     5    2    7 ar
     6    2    3 ar
     7    3    4 ar
     8    3   27 1
     9    4    5 ar
    10    4   28 1
    11    5    6 ar
    12    5   29 1
    13    6    7 ar
    14    6   30 1
    15    7    8 1
    16    8    9 1
    17    8   31 1
    18    9   10 2
    19    9   11 1
    20   11   12 1
    21   11   32 1
    22   12   13 2
    23   13   14 1
    24   13   33 1
    25   14   19 ar
    26   14   15 ar
    27   15   16 ar
    28   15   34 1
    29   16   17 ar
    30   16   35 1
    31   17   18 ar
    32   17   20 1
    33   18   19 ar
    34   18   36 1
    35   19   37 1
    36   20   21 1
    37   20   22 1
    38   20   23 1
    39   21   38 1
    40   21   39 1
    41   21   40 1
    42   22   41 1
    43   22   42 1
    44   22   43 1
    45   23   44 1
    46   23   45 1
    47   23   46 1
@<TRIPOS>MOLECULE
ZINC35560046
   55    58     0     0     0
SMALL
USER_CHARGES

@<TRIPOS>ATOM
      1 C1         -0.3973    3.0150   -2.1244 C.3       1 <0>        -0.1477
      2 C2         -0.6080    1.5334   -1.8061 C.3       1 <0>        -0.0827
      3 C3          0.2721    0.6976   -2.6994 C.ar      1 <0>        -0.0922
      4 C4         -0.2275    0.1825   -3.8757 C.ar      1 <0>        -0.0995
      5 C5          0.5727   -0.5887   -4.7070 C.ar      1 <0>        -0.1413
      6 C6          1.8718   -0.8502   -4.3729 C.ar      1 <0>        -0.0754
      7 C7          2.3986   -0.3379   -3.1861 C.ar      1 <0>        -0.0944
      8 C8          1.5929    0.4485   -2.3421 C.ar      1 <0>         0.1028
      9 N1          2.3690    0.8144   -1.2652 N.pl3     1 <0>        -0.5919
     10 H1          2.0682    1.3592   -0.5211 H         1 <0>         0.4147
     11 C9          3.6276    0.2950   -1.4009 C.2       1 <0>         0.0578
     12 C10         3.7089   -0.4174   -2.5358 C.2       1 <0>        -0.1591
     13 C11         4.9223   -1.1480   -3.0506 C.3       1 <0>         0.0405
     14 H2          4.6836   -1.6235   -4.0019 H         1 <0>         0.0989
     15 C12         5.3424   -2.2155   -2.0382 C.3       1 <0>        -0.1320
     16 C13         6.4783   -3.0269   -2.6060 C.2       1 <0>         0.5160
     17 O1          6.9093   -2.7762   -3.7116 O.2       1 <0>        -0.5206
     18 N2          7.0151   -4.0313   -1.8853 N.am      1 <0>        -0.7074
     19 C14         8.1193   -4.8202   -2.4373 C.3       1 <0>         0.0813
     20 C15         8.0613   -6.3386   -2.2585 C.3       1 <0>        -0.1939
     21 C16         9.0590   -5.5102   -1.4465 C.3       1 <0>        -0.1905
     22 C17         6.0517   -0.1699   -3.2472 C.ar      1 <0>        -0.0612
     23 C18         6.6305    0.4467   -2.1534 C.ar      1 <0>        -0.1170
     24 C19         7.6663    1.3437   -2.3337 C.ar      1 <0>        -0.1283
     25 C20         8.1241    1.6242   -3.6078 C.ar      1 <0>        -0.0877
     26 C21         7.5461    1.0071   -4.7012 C.ar      1 <0>        -0.1213
     27 C22         6.5127    0.1065   -4.5205 C.ar      1 <0>        -0.0496
     28 C23         5.8860   -0.5702   -5.7122 C.3       1 <0>        -0.1159
     29 C24         9.2529    2.6031   -3.8045 C.3       1 <0>        -0.1140
     30 H3          0.6468    3.2782   -1.9549 H         1 <0>         0.0507
     31 H4         -0.6548    3.2029   -3.1667 H         1 <0>         0.0590
     32 H5         -1.0338    3.6195   -1.4782 H         1 <0>         0.0581
     33 H6         -0.3505    1.3455   -0.7637 H         1 <0>         0.0625
     34 H7         -1.6521    1.2703   -1.9755 H         1 <0>         0.0754
     35 H8         -1.2523    0.3805   -4.1533 H         1 <0>         0.1233
     36 H9          0.1654   -0.9856   -5.6252 H         1 <0>         0.1219
     37 H10         2.4885   -1.4514   -5.0245 H         1 <0>         0.1199
     38 H11         4.4339    0.4314   -0.6955 H         1 <0>         0.1658
     39 H12         5.6658   -1.7338   -1.1154 H         1 <0>         0.0934
     40 H13         4.4968   -2.8707   -1.8290 H         1 <0>         0.0988
     41 H14         6.6704   -4.2319   -1.0011 H         1 <0>         0.4001
     42 H15         8.5543   -4.4381   -3.3609 H         1 <0>         0.1375
     43 H16         7.2015   -6.7506   -1.7301 H         1 <0>         0.0964
     44 H17         8.4579   -6.9558   -3.0646 H         1 <0>         0.1022
     45 H18        10.1120   -5.5825   -1.7183 H         1 <0>         0.1032
     46 H19         8.8556   -5.3773   -0.3839 H         1 <0>         0.0965
     47 H20         6.2729    0.2276   -1.1581 H         1 <0>         0.1130
     48 H21         8.1180    1.8259   -1.4793 H         1 <0>         0.1159
     49 H22         7.9034    1.2265   -5.6965 H         1 <0>         0.1175
     50 H23         4.9893   -0.0263   -6.0090 H         1 <0>         0.0648
     51 H24         6.5957   -0.5797   -6.5395 H         1 <0>         0.0606
     52 H25         5.6198   -1.5942   -5.4502 H         1 <0>         0.0788
     53 H26        10.2039    2.0712   -3.7770 H         1 <0>         0.0681
     54 H27         9.1409    3.0977   -4.7693 H         1 <0>         0.0643
     55 H28         9.2302    3.3483   -3.0093 H         1 <0>         0.0637
@<TRIPOS>BOND
     1    1    2 1
     2    1   30 1
     3    1   31 1
     4    1   32 1
     5    2    3 1
     6    2   33 1
     7    2   34 1
     8    3    8 ar
     9    3    4 ar
    10    4    5 ar
    11    4   35 1
    12    5    6 ar
    13    5   36 1
    14    6    7 ar
    15    6   37 1
    16    7   12 1
    17    7    8 ar
    18    8    9 1
    19    9   10 1
    20    9   11 1
    21   11   12 2
    22   11   38 1
    23   12   13 1
    24   13   14 1
    25   13   15 1
    26   13   22 1
    27   15   16 1
    28   15   39 1
    29   15   40 1
    30   16   17 2
    31   16   18 am
    32   18   19 1
    33   18   41 1
    34   19   21 1
    35   19   20 1
    36   19   42 1
    37   20   21 1
    38   20   43 1
    39   20   44 1
    40   21   45 1
    41   21   46 1
    42   22   27 ar
    43   22   23 ar
    44   23   24 ar
    45   23   47 1
    46   24   25 ar
    47   24   48 1
    48   25   26 ar
    49   25   29 1
    50   26   27 ar
    51   26   49 1
    52   27   28 1
    53   28   50 1
    54   28   51 1
    55   28   52 1
    56   29   53 1
    57   29   54 1
    58   29   55 1
@<TRIPOS>MOLECULE
ZINC45158317
   46    48     0     0     0
SMALL
USER_CHARGES

@<TRIPOS>ATOM
      1 C1         -0.9556    0.0200   -2.3580 C.3       1 <0>        -0.1202
      2 C2         -0.2249   -0.3523   -1.0937 C.2       1 <0>        -0.1073
      3 C3         -0.8827   -0.3960    0.0715 C.2       1 <0>        -0.1510
      4 C4         -2.2934    0.0241    0.1373 C.2       1 <0>         0.1279
      5 C5         -3.2576   -0.8822    0.4328 C.2       1 <0>        -0.0974
      6 C6         -2.9136   -2.2970    0.5711 C.2       1 <0>        -0.1326
      7 C7         -3.8577   -3.1853    0.8877 C.2       1 <0>        -0.1583
      8 N1         -2.6363    1.3510   -0.1040 N.pl3     1 <0>        -0.6711
      9 C8         -2.0677    2.3600    0.6507 C.2       1 <0>         0.4322
     10 C9         -2.3665    3.6473    0.3531 C.2       1 <0>        -0.2991
     11 C10        -1.7983    4.6992    1.1104 C.ar      1 <0>         0.0552
     12 C11        -2.0810    6.0417    0.8349 C.ar      1 <0>        -0.1446
     13 C12        -1.5070    7.0206    1.5946 C.ar      1 <0>        -0.0720
     14 C13        -0.6452    6.7025    2.6378 C.ar      1 <0>        -0.1587
     15 C14        -0.3492    5.4009    2.9311 C.ar      1 <0>        -0.0368
     16 C15        -0.9207    4.3773    2.1735 C.ar      1 <0>        -0.1885
     17 C16        -0.6379    2.9651    2.4447 C.2       1 <0>         0.5600
     18 O1          0.1116    2.6463    3.3503 O.2       1 <0>        -0.5185
     19 N2         -1.2259    2.0239    1.6773 N.am      1 <0>        -0.6374
     20 H1         -1.0452    1.0874    1.8544 H         1 <0>         0.4126
     21 S1         -0.0615   -0.9558    1.5264 S.3       1 <0>        -0.0158
     22 C17         1.5218   -1.4717    0.9504 C.ar      1 <0>        -0.1420
     23 C18         2.6016   -0.5987    1.0060 C.ar      1 <0>        -0.0643
     24 C19         3.8409   -1.0064    0.5537 C.ar      1 <0>        -0.1267
     25 C20         4.0083   -2.2819    0.0458 C.ar      1 <0>        -0.0855
     26 C21         2.9359   -3.1535   -0.0110 C.ar      1 <0>        -0.1281
     27 C22         1.6950   -2.7546    0.4448 C.ar      1 <0>        -0.0636
     28 H2         -0.2523    0.0439   -3.1905 H         1 <0>         0.0661
     29 H3         -1.7322   -0.7177   -2.5595 H         1 <0>         0.0736
     30 H4         -1.4107    1.0033   -2.2385 H         1 <0>         0.0715
     31 H5          0.8295   -0.5839   -1.1276 H         1 <0>         0.1198
     32 H6         -4.2795   -0.5594    0.5661 H         1 <0>         0.1303
     33 H7         -1.8955   -2.6228    0.4169 H         1 <0>         0.1218
     34 H8         -4.8758   -2.8595    1.0418 H         1 <0>         0.1002
     35 H9         -3.6037   -4.2300    0.9898 H         1 <0>         0.1065
     36 H10        -3.2742    1.5680   -0.8017 H         1 <0>         0.4277
     37 H11        -3.0382    3.8709   -0.4625 H         1 <0>         0.1430
     38 H12        -2.7484    6.3020    0.0267 H         1 <0>         0.1291
     39 H13        -1.7254    8.0567    1.3816 H         1 <0>         0.1249
     40 H14        -0.2033    7.4945    3.2242 H         1 <0>         0.1261
     41 H15         0.3221    5.1659    3.7439 H         1 <0>         0.1328
     42 H16         2.4716    0.3976    1.4021 H         1 <0>         0.1323
     43 H17         4.6804   -0.3283    0.5962 H         1 <0>         0.1317
     44 H18         4.9786   -2.5980   -0.3076 H         1 <0>         0.1303
     45 H19         3.0702   -4.1487   -0.4082 H         1 <0>         0.1316
     46 H20         0.8591   -3.4373    0.4046 H         1 <0>         0.1321
@<TRIPOS>BOND
     1    1    2 1
     2    1   28 1
     3    1   29 1
     4    1   30 1
     5    2    3 2
     6    2   31 1
     7    3    4 1
     8    3   21 1
     9    4    5 2
    10    4    8 1
    11    5    6 1
    12    5   32 1
    13    6    7 2
    14    6   33 1
    15    7   34 1
    16    7   35 1
    17    8    9 1
    18    8   36 1
    19    9   19 1
    20    9   10 2
    21   10   11 1
    22   10   37 1
    23   11   16 ar
    24   11   12 ar
    25   12   13 ar
    26   12   38 1
    27   13   14 ar
    28   13   39 1
    29   14   15 ar
    30   14   40 1
    31   15   16 ar
    32   15   41 1
    33   16   17 1
    34   17   18 2
    35   17   19 am
    36   19   20 1
    37   21   22 1
    38   22   27 ar
    39   22   23 ar
    40   23   24 ar
    41   23   42 1
    42   24   25 ar
    43   24   43 1
    44   25   26 ar
    45   25   44 1
    46   26   27 ar
    47   26   45 1
    48   27   46 1
@<TRIPOS>MOLECULE
ZINC58475970
   49    50     0     0     0
SMALL
NO_CHARGES

@<TRIPOS>ATOM
      1 C1         -1.4948   -0.2292   -0.1298 C.3       1 <0>        -0.1669
      2 C2          0.0172   -0.0776    0.0484 C.3       1 <0>        -0.0157
      3 N1          0.7029   -0.5551   -1.1597 N.4       1 <0>        -0.2595
      4 C3          2.1416   -0.2803   -1.0471 C.3       1 <0>        -0.0119
      5 C4          2.8373   -0.6600   -2.3558 C.3       1 <0>        -0.1633
      6 C5          0.5007   -1.9316   -1.2971 C.ar      1 <0>        -0.3015
      7 C6          0.9249   -2.7937   -0.3026 C.ar      1 <0>        -0.1375
      8 C7          0.7267   -4.1540   -0.4351 C.ar      1 <0>        -0.1238
      9 C8          0.1006   -4.6559   -1.5689 C.ar      1 <0>         0.0080
     10 C9         -0.3242   -3.7871   -2.5660 C.ar      1 <0>        -0.1311
     11 C10        -0.1280   -2.4273   -2.4246 C.ar      1 <0>        -0.1351
     12 N2         -0.1010   -6.0312   -1.7064 N.pl3     1 <0>        -0.7426
     13 C11        -0.7615   -6.5588   -2.9029 C.3       1 <0>         0.1444
     14 C12        -0.8564   -8.0826   -2.8031 C.3       1 <0>         0.0490
     15 O1         -1.7100   -8.4363   -1.7130 O.3       1 <0>        -0.3081
     16 C13        -1.9024   -9.7622   -1.4852 C.ar      1 <0>         0.1258
     17 C14        -1.2778  -10.7034   -2.2906 C.ar      1 <0>        -0.2066
     18 C15        -1.4747  -12.0506   -2.0567 C.ar      1 <0>        -0.0809
     19 C16        -2.2937  -12.4612   -1.0211 C.ar      1 <0>        -0.1273
     20 C17        -2.9176  -11.5252   -0.2172 C.ar      1 <0>        -0.0810
     21 C18        -2.7191  -10.1768   -0.4432 C.ar      1 <0>        -0.1488
     22 C19        -2.5070  -13.9315   -0.7685 C.3       1 <0>        -0.1104
     23 H1         -1.8282    0.3995   -0.9555 H         1 <0>         0.0598
     24 H2         -1.7325   -1.2705   -0.3470 H         1 <0>         0.0897
     25 H3         -2.0010    0.0755    0.7862 H         1 <0>         0.0777
     26 H4          0.2602    0.9721    0.2133 H         1 <0>         0.0904
     27 H5          0.3425   -0.6650    0.9070 H         1 <0>         0.1080
     28 H6          2.2945    0.7805   -0.8489 H         1 <0>         0.0907
     29 H7          2.5606   -0.8668   -0.2294 H         1 <0>         0.1083
     30 H8          2.7795   -1.7391   -2.4982 H         1 <0>         0.0869
     31 H9          2.3453   -0.1569   -3.1882 H         1 <0>         0.0608
     32 H10         3.8828   -0.3546   -2.3134 H         1 <0>         0.0768
     33 H11         1.4120   -2.4029    0.5785 H         1 <0>         0.0776
     34 H12         1.0585   -4.8269    0.3418 H         1 <0>         0.0855
     35 H13        -0.8110   -4.1740   -3.4490 H         1 <0>         0.0875
     36 H14        -0.4620   -1.7509   -3.1974 H         1 <0>         0.0794
     37 H15         0.1964   -6.6370   -1.0096 H         1 <0>         0.3863
     38 H16        -1.7635   -6.1367   -2.9807 H         1 <0>         0.0555
     39 H17        -0.1835   -6.2878   -3.7863 H         1 <0>         0.0653
     40 H18        -1.2666   -8.4826   -3.7304 H         1 <0>         0.0711
     41 H19         0.1373   -8.4983   -2.6362 H         1 <0>         0.0656
     42 H20        -0.6386  -10.3832   -3.1000 H         1 <0>         0.1267
     43 H21        -0.9887  -12.7837   -2.6834 H         1 <0>         0.1235
     44 H22        -3.5572  -11.8484    0.5908 H         1 <0>         0.1282
     45 H23        -3.2032   -9.4461    0.1877 H         1 <0>         0.1300
     46 H24        -1.7509  -14.2940   -0.0720 H         1 <0>         0.0677
     47 H25        -3.4981  -14.0868   -0.3420 H         1 <0>         0.0650
     48 H26        -2.4264  -14.4772   -1.7086 H         1 <0>         0.0641
     49 H27         0.3317   -0.0783   -1.9678 H         1 <0>         0.3966
@<TRIPOS>BOND
     1    1    2 1
     2    1   23 1
     3    1   24 1
     4    1   25 1
     5    2    3 1
     6    2   26 1
     7    2   27 1
     8    3    4 1
     9    3    6 1
    10    3   49 1
    11    4    5 1
    12    4   28 1
    13    4   29 1
    14    5   30 1
    15    5   31 1
    16    5   32 1
    17    6   11 ar
    18    6    7 ar
    19    7    8 ar
    20    7   33 1
    21    8    9 ar
    22    8   34 1
    23    9   10 ar
    24    9   12 1
    25   10   11 ar
    26   10   35 1
    27   11   36 1
    28   12   13 1
    29   12   37 1
    30   13   14 1
    31   13   38 1
    32   13   39 1
    33   14   15 1
    34   14   40 1
    35   14   41 1
    36   15   16 1
    37   16   21 ar
    38   16   17 ar
    39   17   18 ar
    40   17   42 1
    41   18   19 ar
    42   18   43 1
    43   19   20 ar
    44   19   22 1
    45   20   21 ar
    46   20   44 1
    47   21   45 1
    48   22   46 1
    49   22   47 1
    50   22   48 1
@<TRIPOS>MOLECULE
ZINC66190213
   45    46     0     0     0
SMALL
USER_CHARGES

@<TRIPOS>ATOM
      1 C1         -2.2288   -2.0185    1.6669 C.3       1 <0>        -0.1812
      2 C2         -2.1935   -0.5773    1.1545 C.3       1 <0>         0.0785
      3 C3         -1.6601    0.3423    2.2549 C.3       1 <0>        -0.1497
      4 O1         -1.3386   -0.4987    0.0122 O.3       1 <0>        -0.3138
      5 C4         -1.8893   -0.8037   -1.1934 C.ar      1 <0>         0.0793
      6 C5         -1.1477   -0.6440   -2.3545 C.ar      1 <0>        -0.1044
      7 C6         -1.7062   -0.9535   -3.5791 C.ar      1 <0>        -0.1511
      8 C7         -3.0106   -1.4247   -3.6477 C.ar      1 <0>         0.1789
      9 C8         -3.7523   -1.5843   -2.4847 C.ar      1 <0>        -0.1563
     10 C9         -3.1903   -1.2797   -1.2605 C.ar      1 <0>        -0.1621
     11 N1         -3.5774   -1.7381   -4.8882 N.pl3     1 <0>        -0.7496
     12 C10        -4.9536   -2.2352   -4.9601 C.3       1 <0>         0.1184
     13 C11        -5.3250   -2.4987   -6.4207 C.3       1 <0>         0.1150
     14 N2         -6.7012   -2.9958   -6.4926 N.pl3     1 <0>        -0.7429
     15 C12        -7.2670   -3.3086   -7.7307 C.ar      1 <0>         0.2166
     16 C13        -6.5241   -3.1544   -8.8946 C.ar      1 <0>        -0.1660
     17 C14        -7.0864   -3.4650  -10.1169 C.ar      1 <0>        -0.0705
     18 C15        -8.3877   -3.9288  -10.1835 C.ar      1 <0>        -0.1308
     19 C16        -9.1299   -4.0830   -9.0272 C.ar      1 <0>        -0.1326
     20 C17        -8.5716   -3.7801   -7.8007 C.ar      1 <0>        -0.1462
     21 C18       -10.5478   -4.5878   -9.1047 C.3       1 <0>         0.5072
     22 F1        -10.8846   -4.8288  -10.4410 F         1 <0>        -0.1757
     23 F2        -10.6606   -5.7753   -8.3739 F         1 <0>        -0.1765
     24 F3        -11.4143   -3.6277   -8.5713 F         1 <0>        -0.1764
     25 H1         -2.8809   -2.0784    2.5383 H         1 <0>         0.0709
     26 H2         -2.6088   -2.6736    0.8830 H         1 <0>         0.0619
     27 H3         -1.2219   -2.3302    1.9445 H         1 <0>         0.0675
     28 H4         -3.2004   -0.2656    0.8769 H         1 <0>         0.0708
     29 H5         -0.6532    0.0306    2.5325 H         1 <0>         0.0670
     30 H6         -1.6350    1.3691    1.8898 H         1 <0>         0.0647
     31 H7         -2.3123    0.2824    3.1262 H         1 <0>         0.0761
     32 H8         -0.1333   -0.2771   -2.3010 H         1 <0>         0.1307
     33 H9         -1.1287   -0.8287   -4.4832 H         1 <0>         0.1276
     34 H10        -4.7669   -1.9508   -2.5372 H         1 <0>         0.1213
     35 H11        -3.7655   -1.4083   -0.3554 H         1 <0>         0.1284
     36 H12        -3.0591   -1.6262   -5.7004 H         1 <0>         0.4008
     37 H13        -5.0354   -3.1616   -4.3916 H         1 <0>         0.0649
     38 H14        -5.6311   -1.4910   -4.5415 H         1 <0>         0.0649
     39 H15        -5.2432   -1.5723   -6.9892 H         1 <0>         0.0688
     40 H16        -4.6476   -3.2429   -6.8393 H         1 <0>         0.0688
     41 H17        -7.2195   -3.1077   -5.6804 H         1 <0>         0.4042
     42 H18        -5.5082   -2.7916   -8.8434 H         1 <0>         0.1297
     43 H19        -6.5094   -3.3453  -11.0220 H         1 <0>         0.1352
     44 H20        -8.8251   -4.1707  -11.1408 H         1 <0>         0.1362
     45 H21        -9.1503   -3.9053   -6.8975 H         1 <0>         0.1317
@<TRIPOS>BOND
     1    1    2 1
     2    1   25 1
     3    1   26 1
     4    1   27 1
     5    2    3 1
     6    2    4 1
     7    2   28 1
     8    3   29 1
     9    3   30 1
    10    3   31 1
    11    4    5 1
    12    5   10 ar
    13    5    6 ar
    14    6    7 ar
    15    6   32 1
    16    7    8 ar
    17    7   33 1
    18    8    9 ar
    19    8   11 1
    20    9   10 ar
    21    9   34 1
    22   10   35 1
    23   11   12 1
    24   11   36 1
    25   12   13 1
    26   12   37 1
    27   12   38 1
    28   13   14 1
    29   13   39 1
    30   13   40 1
    31   14   15 1
    32   14   41 1
    33   15   20 ar
    34   15   16 ar
    35   16   17 ar
    36   16   42 1
    37   17   18 ar
    38   17   43 1
    39   18   19 ar
    40   18   44 1
    41   19   20 ar
    42   19   21 1
    43   20   45 1
    44   21   22 1
    45   21   23 1
    46   21   24 1
@<TRIPOS>MOLECULE
ZINC00504435
   47    50     0     0     0
SMALL
USER_CHARGES
1-(1-naphthylamino)-3-(2-naphthyloxy)propan-2-ol
@<TRIPOS>ATOM
      1 C1         -8.8631   14.2384    1.0130 C.ar      1 <0>        -0.1274
      2 C2         -7.5873   14.7994    0.9993 C.ar      1 <0>        -0.1038
      3 C3         -6.4803   14.0192    0.8653 C.ar      1 <0>        -0.1156
      4 C4         -6.6222   12.6263    0.7387 C.ar      1 <0>        -0.0133
      5 C5         -5.5027   11.7899    0.5982 C.ar      1 <0>        -0.1513
      6 C6         -5.6787   10.4410    0.4771 C.ar      1 <0>         0.1295
      7 C7         -6.9603    9.8811    0.4853 C.ar      1 <0>        -0.1923
      8 C8         -8.0638   10.6632    0.6255 C.ar      1 <0>        -0.0631
      9 C9         -7.9198   12.0559    0.7526 C.ar      1 <0>        -0.0842
     10 C10        -9.0389   12.8942    0.8924 C.ar      1 <0>        -0.0948
     11 O1         -4.5948    9.6328    0.3412 O.3       1 <0>        -0.3028
     12 C11        -4.8423    8.2307    0.2187 C.3       1 <0>         0.0300
     13 C12        -3.5119    7.4886    0.0762 C.3       1 <0>         0.1000
     14 H1         -2.8620    7.7438    0.9132 H         1 <0>         0.1173
     15 C13        -3.7675    5.9801    0.0703 C.3       1 <0>         0.0968
     16 N1         -2.4873    5.2680    0.0541 N.pl3     1 <0>        -0.7340
     17 C14        -2.4651    3.8750    0.0462 C.ar      1 <0>         0.2306
     18 C15        -3.6443    3.1604    0.0541 C.ar      1 <0>        -0.2217
     19 C16        -3.6330    1.7690    0.0472 C.ar      1 <0>        -0.0607
     20 C17        -2.4612    1.0755    0.0322 C.ar      1 <0>        -0.1705
     21 C18        -1.2374    1.7657    0.0175 C.ar      1 <0>        -0.0099
     22 C19        -1.2354    3.1824    0.0307 C.ar      1 <0>        -0.0967
     23 C20        -0.0120    3.8702    0.0226 C.ar      1 <0>        -0.0956
     24 C21         1.1553    3.1692    0.0081 C.ar      1 <0>        -0.1297
     25 C22         1.1546    1.7758    0.0006 C.ar      1 <0>        -0.1054
     26 C23        -0.0126    1.0758    0.0080 C.ar      1 <0>        -0.1168
     27 O2         -2.8827    7.8699   -1.1489 O.3       1 <0>        -0.5456
     28 H2         -9.7251   14.8800    1.1207 H         1 <0>         0.1239
     29 H3         -7.4755   15.8692    1.0960 H         1 <0>         0.1248
     30 H4         -5.4980   14.4678    0.8559 H         1 <0>         0.1288
     31 H5         -4.5083   12.2110    0.5857 H         1 <0>         0.1355
     32 H6         -7.0749    8.8121    0.3832 H         1 <0>         0.1291
     33 H7         -9.0472   10.2168    0.6346 H         1 <0>         0.1325
     34 H8        -10.0337   12.4738    0.9041 H         1 <0>         0.1271
     35 H9         -5.4576    8.0459   -0.6618 H         1 <0>         0.0703
     36 H10        -5.3635    7.8748    1.1074 H         1 <0>         0.0758
     37 H11        -4.3433    5.7126   -0.8157 H         1 <0>         0.0703
     38 H12        -4.3262    5.7028    0.9642 H         1 <0>         0.0757
     39 H13        -1.6551    5.7663    0.0489 H         1 <0>         0.4049
     40 H14        -4.5874    3.6865    0.0660 H         1 <0>         0.1186
     41 H15        -4.5690    1.2302    0.0535 H         1 <0>         0.1206
     42 H16        -2.4726   -0.0045    0.0267 H         1 <0>         0.1228
     43 H17         0.0036    4.9501    0.0283 H         1 <0>         0.1191
     44 H18         2.0953    3.7010    0.0019 H         1 <0>         0.1223
     45 H19         2.0942    1.2433   -0.0117 H         1 <0>         0.1228
     46 H20         0.0021   -0.0041    0.0020 H         1 <0>         0.1276
     47 H21        -3.4057    7.6722   -1.9378 H         1 <0>         0.3785
@<TRIPOS>BOND
     1    1   10 ar
     2    1    2 ar
     3    1   28 1
     4    2    3 ar
     5    2   29 1
     6    3    4 ar
     7    3   30 1
     8    4    9 ar
     9    4    5 ar
    10    5    6 ar
    11    5   31 1
    12    6    7 ar
    13    6   11 1
    14    7    8 ar
    15    7   32 1
    16    8    9 ar
    17    8   33 1
    18    9   10 ar
    19   10   34 1
    20   11   12 1
    21   12   13 1
    22   12   35 1
    23   12   36 1
    24   13   14 1
    25   13   15 1
    26   13   27 1
    27   15   16 1
    28   15   37 1
    29   15   38 1
    30   16   17 1
    31   16   39 1
    32   17   22 ar
    33   17   18 ar
    34   18   19 ar
    35   18   40 1
    36   19   20 ar
    37   19   41 1
    38   20   21 ar
    39   20   42 1
    40   21   26 ar
    41   21   22 ar
    42   22   23 ar
    43   23   24 ar
    44   23   43 1
    45   24   25 ar
    46   24   44 1
    47   25   26 ar
    48   25   45 1
    49   26   46 1
    50   27   47 1
@<TRIPOS>MOLECULE
ZINC32183505
   47    48     0     0     0
SMALL
USER_CHARGES
(2R)-1-(4-isopropylphenoxy)-3-(3-methylanilino)propan-2-ol
@<TRIPOS>ATOM
      1 C1         -2.5137    0.9757    0.0188 C.3       1 <0>        -0.1190
      2 C2         -1.2205    1.7494    0.0174 C.ar      1 <0>        -0.0379
      3 C3         -0.0126    1.0758    0.0080 C.ar      1 <0>        -0.1828
      4 C4          1.1762    1.7818    0.0004 C.ar      1 <0>        -0.0678
      5 C5          1.1611    3.1630    0.0080 C.ar      1 <0>        -0.2103
      6 C6         -0.0501    3.8425    0.0232 C.ar      1 <0>         0.2255
      7 C7         -1.2428    3.1300    0.0307 C.ar      1 <0>        -0.1985
      8 N1         -0.0691    5.2391    0.0304 N.pl3     1 <0>        -0.7514
      9 C8          1.1896    5.9888    0.0219 C.3       1 <0>         0.1396
     10 C9          0.8896    7.4891    0.0324 C.3       1 <0>         0.1144
     11 H1          0.1794    7.7594   -0.7629 H         1 <0>         0.0698
     12 C10         2.1975    8.2716   -0.1021 C.3       1 <0>         0.0282
     13 O1          1.9088    9.6670   -0.2094 O.3       1 <0>        -0.3167
     14 C11         2.9685   10.5083   -0.3365 C.ar      1 <0>         0.1239
     15 C12         4.2599   10.0017   -0.3518 C.ar      1 <0>        -0.2042
     16 C13         5.3351   10.8585   -0.4874 C.ar      1 <0>        -0.0745
     17 C14         5.1256   12.2209   -0.5954 C.ar      1 <0>        -0.1113
     18 C15         3.8398   12.7288   -0.5746 C.ar      1 <0>        -0.0785
     19 C16         2.7609   11.8757   -0.4455 C.ar      1 <0>        -0.1476
     20 C17         6.3007   13.1538   -0.7363 C.3       1 <0>        -0.0544
     21 C18         7.2114   13.0151    0.4853 C.3       1 <0>        -0.1466
     22 C19         7.0855   12.7980   -2.0006 C.3       1 <0>        -0.1466
     23 O2          0.2498    7.8384    1.2615 O.3       1 <0>        -0.5911
     24 H2         -2.2959   -0.1025    0.0071 H         1 <0>         0.0657
     25 H3         -3.1006    1.2410   -0.8729 H         1 <0>         0.0695
     26 H4         -3.0884    1.2239    0.9233 H         1 <0>         0.0697
     27 H5          0.0021   -0.0041    0.0020 H         1 <0>         0.1168
     28 H6          2.1177    1.2527   -0.0118 H         1 <0>         0.1192
     29 H7          2.0900    3.7138    0.0017 H         1 <0>         0.1157
     30 H8         -2.1863    3.6554    0.0425 H         1 <0>         0.1182
     31 H9         -1.0290    5.7761    0.0425 H         1 <0>         0.4231
     32 H10         1.7787    5.7264    0.9130 H         1 <0>         0.0684
     33 H11         1.7612    5.7355   -0.8831 H         1 <0>         0.0736
     34 H12         2.8239    8.0939    0.7845 H         1 <0>         0.0755
     35 H13         2.7336    7.9377   -1.0027 H         1 <0>         0.0724
     36 H14         4.4243    8.9380   -0.2627 H         1 <0>         0.1262
     37 H15         6.3404   10.4641   -0.5046 H         1 <0>         0.1243
     38 H16         3.6787   13.7933   -0.6598 H         1 <0>         0.1293
     39 H17         1.7567   12.2729   -0.4297 H         1 <0>         0.1305
     40 H18         5.9247   14.1851   -0.8073 H         1 <0>         0.0780
     41 H19         8.0691   13.6961    0.3824 H         1 <0>         0.0593
     42 H20         7.5727   11.9786    0.5575 H         1 <0>         0.0562
     43 H21         6.6471   13.2709    1.3942 H         1 <0>         0.0565
     44 H22         7.9433   13.4789   -2.1035 H         1 <0>         0.0593
     45 H23         6.4307   12.8978   -2.8788 H         1 <0>         0.0563
     46 H24         7.4467   11.7615   -1.9284 H         1 <0>         0.0562
     47 H25        -0.0437    8.8813    1.4518 H         1 <0>         0.4179
@<TRIPOS>BOND
     1    1    2 1
     2    1   24 1
     3    1   25 1
     4    1   26 1
     5    2    7 ar
     6    2    3 ar
     7    3    4 ar
     8    3   27 1
     9    4    5 ar
    10    4   28 1
    11    5    6 ar
    12    5   29 1
    13    6    7 ar
    14    6    8 1
    15    7   30 1
    16    8    9 1
    17    8   31 1
    18    9   10 1
    19    9   32 1
    20    9   33 1
    21   10   11 1
    22   10   12 1
    23   10   23 1
    24   12   13 1
    25   12   34 1
    26   12   35 1
    27   13   14 1
    28   14   19 ar
    29   14   15 ar
    30   15   16 ar
    31   15   36 1
    32   16   17 ar
    33   16   37 1
    34   17   18 ar
    35   17   20 1
    36   18   19 ar
    37   18   38 1
    38   19   39 1
    39   20   21 1
    40   20   22 1
    41   20   40 1
    42   21   41 1
    43   21   42 1
    44   21   43 1
    45   22   44 1
    46   22   45 1
    47   22   46 1
    48   23   47 1
@<TRIPOS>MOLECULE
ZINC37543586
   34    35     0     0     0
SMALL
USER_CHARGES

@<TRIPOS>ATOM
      1 C1         -0.0167    1.3783    0.0096 C.ar      1 <0>        -0.0811
      2 C2          1.1662    2.0889    0.0021 C.ar      1 <0>        -0.1255
      3 C3          2.3868    1.4109   -0.0131 C.ar      1 <0>        -0.0724
      4 C4          2.4038    0.0150   -0.0207 C.ar      1 <0>        -0.0800
      5 C5          1.2109   -0.6873   -0.0131 C.ar      1 <0>         0.1315
      6 C6          0.0021   -0.0041    0.0020 C.ar      1 <0>        -0.1792
      7 O1          1.2229   -2.0463   -0.0209 O.3       1 <0>        -0.2966
      8 C7         -0.0446   -2.7063   -0.0123 C.3       1 <0>         0.0621
      9 C8          0.1692   -4.2213   -0.0230 C.3       1 <0>         0.0668
     10 O2          0.8114   -4.6202    1.1896 O.3       1 <0>        -0.3085
     11 C9          1.0758   -5.9452    1.3410 C.ar      1 <0>         0.1119
     12 C10         0.1358   -6.7788    1.9305 C.ar      1 <0>        -0.0471
     13 C11         0.4075   -8.1259    2.0832 C.ar      1 <0>        -0.0955
     14 C12         1.6142   -8.6426    1.6493 C.ar      1 <0>        -0.0979
     15 C13         2.5526   -7.8145    1.0617 C.ar      1 <0>        -0.0949
     16 C14         2.2840   -6.4677    0.9012 C.ar      1 <0>        -0.0458
     17 Cl1         3.4597   -5.4301    0.1562 Cl        1 <0>        -0.0342
     18 Cl2        -1.3795   -6.1308    2.4761 Cl        1 <0>        -0.0448
     19 C15         3.6546    2.1674   -0.0216 C.2       1 <0>         0.3928
     20 S1          5.0202    1.5589    0.8125 S.2       1 <0>        -0.5391
     21 N1          3.7369    3.3371   -0.6861 N.pl3     1 <0>        -0.7599
     22 H1         -0.9601    1.9037    0.0260 H         1 <0>         0.1359
     23 H2          1.1479    3.1687    0.0077 H         1 <0>         0.1283
     24 H3          3.3446   -0.5152   -0.0329 H         1 <0>         0.1523
     25 H4         -0.9270   -0.5547    0.0083 H         1 <0>         0.1355
     26 H5         -0.5955   -2.4234    0.8847 H         1 <0>         0.0787
     27 H6         -0.6128   -2.4133   -0.8952 H         1 <0>         0.0865
     28 H7         -0.7946   -4.7236   -0.1060 H         1 <0>         0.0809
     29 H8          0.7954   -4.4939   -0.8725 H         1 <0>         0.0717
     30 H9         -0.3235   -8.7750    2.5421 H         1 <0>         0.1456
     31 H10         1.8244   -9.6951    1.7699 H         1 <0>         0.1469
     32 H11         3.4945   -8.2208    0.7240 H         1 <0>         0.1461
     33 H12         2.9632    3.6819   -1.1587 H         1 <0>         0.4043
     34 H13         4.5699    3.8341   -0.6917 H         1 <0>         0.4248
@<TRIPOS>BOND
     1    1    6 ar
     2    1    2 ar
     3    1   22 1
     4    2    3 ar
     5    2   23 1
     6    3    4 ar
     7    3   19 1
     8    4    5 ar
     9    4   24 1
    10    5    6 ar
    11    5    7 1
    12    6   25 1
    13    7    8 1
    14    8    9 1
    15    8   26 1
    16    8   27 1
    17    9   10 1
    18    9   28 1
    19    9   29 1
    20   10   11 1
    21   11   16 ar
    22   11   12 ar
    23   12   13 ar
    24   12   18 1
    25   13   14 ar
    26   13   30 1
    27   14   15 ar
    28   14   31 1
    29   15   16 ar
    30   15   32 1
    31   16   17 1
    32   19   20 2
    33   19   21 1
    34   21   33 1
    35   21   34 1
@<TRIPOS>MOLECULE
ZINC49927744
   50    51     0     0     0
SMALL
USER_CHARGES

@<TRIPOS>ATOM
      1 C1         -0.0184    1.5028    0.0103 C.3       1 <0>        -0.1067
      2 C2          0.0021   -0.0041    0.0020 C.ar      1 <0>        -0.1477
      3 C3          0.0057   -0.6873   -1.2002 C.ar      1 <0>        -0.0716
      4 C4          0.0244   -2.0682   -1.2115 C.ar      1 <0>        -0.1919
      5 C5          0.0396   -2.7708   -0.0132 C.ar      1 <0>         0.2126
      6 C6          0.0359   -2.0813    1.1927 C.ar      1 <0>        -0.1958
      7 C7          0.0229   -0.7003    1.1966 C.ar      1 <0>        -0.0723
      8 N1          0.0581   -4.1674   -0.0209 N.pl3     1 <0>        -0.7427
      9 C8          0.0741   -4.9067    1.2438 C.3       1 <0>         0.1045
     10 C9          0.0926   -6.4093    0.9559 C.3       1 <0>         0.1508
     11 H1         -0.7491   -6.6664    0.3128 H         1 <0>         0.1170
     12 C10        -0.0148   -7.1704    2.2521 C.ar      1 <0>        -0.1488
     13 C11         1.1279   -7.6085    2.8934 C.ar      1 <0>        -0.0664
     14 C12         1.0301   -8.3072    4.0823 C.ar      1 <0>        -0.1010
     15 C13        -0.2111   -8.5691    4.6329 C.ar      1 <0>        -0.0767
     16 C14        -1.3565   -8.1329    3.9960 C.ar      1 <0>        -0.2024
     17 C15        -1.2607   -7.4269    2.8054 C.ar      1 <0>         0.1342
     18 O1         -2.3859   -6.9918    2.1796 O.3       1 <0>        -0.3156
     19 C16        -3.6343   -7.2919    2.8068 C.3       1 <0>         0.0268
     20 C17         2.2781   -8.7847    4.7791 C.3       1 <0>        -0.0260
     21 C18         3.1593   -7.5834    5.1270 C.3       1 <0>        -0.1397
     22 C19         1.8944   -9.5244    6.0623 C.3       1 <0>        -0.1460
     23 C20         3.0475   -9.7312    3.8554 C.3       1 <0>        -0.1400
     24 O2          1.3151   -6.7538    0.3011 O.3       1 <0>        -0.5501
     25 H2          1.0042    1.8801    0.0026 H         1 <0>         0.0633
     26 H3         -0.5455    1.8639   -0.8728 H         1 <0>         0.0614
     27 H4         -0.5286    1.8543    0.9071 H         1 <0>         0.0609
     28 H5         -0.0065   -0.1405   -2.1315 H         1 <0>         0.1198
     29 H6          0.0269   -2.6012   -2.1507 H         1 <0>         0.1190
     30 H7          0.0473   -2.6245    2.1261 H         1 <0>         0.1170
     31 H8          0.0244   -0.1635    2.1338 H         1 <0>         0.1185
     32 H9          0.0603   -4.6478   -0.8636 H         1 <0>         0.4028
     33 H10         0.9633   -4.6347    1.8124 H         1 <0>         0.0608
     34 H11        -0.8164   -4.6583    1.8211 H         1 <0>         0.0705
     35 H12         2.0984   -7.4052    2.4654 H         1 <0>         0.1275
     36 H13        -0.2850   -9.1155    5.5616 H         1 <0>         0.1312
     37 H14        -2.3256   -8.3377    4.4264 H         1 <0>         0.1303
     38 H15        -4.4492   -6.8890    2.2054 H         1 <0>         0.1020
     39 H16        -3.7468   -8.3726    2.8937 H         1 <0>         0.0567
     40 H17        -3.6592   -6.8431    3.7998 H         1 <0>         0.0568
     41 H18         2.6112   -6.9091    5.7850 H         1 <0>         0.0565
     42 H19         4.0620   -7.9287    5.6310 H         1 <0>         0.0599
     43 H20         3.4326   -7.0564    4.2128 H         1 <0>         0.0559
     44 H21         1.2666  -10.3803    5.8144 H         1 <0>         0.0586
     45 H22         2.7971   -9.8698    6.5663 H         1 <0>         0.0601
     46 H23         1.3463   -8.8501    6.7203 H         1 <0>         0.0585
     47 H24         3.3208   -9.2042    2.9413 H         1 <0>         0.0571
     48 H25         3.9501  -10.0766    4.3594 H         1 <0>         0.0595
     49 H26         2.4196  -10.5870    3.6076 H         1 <0>         0.0566
     50 H27         2.1079   -6.5523    0.8168 H         1 <0>         0.3743
@<TRIPOS>BOND
     1    1    2 1
     2    1   25 1
     3    1   26 1
     4    1   27 1
     5    2    7 ar
     6    2    3 ar
     7    3    4 ar
     8    3   28 1
     9    4    5 ar
    10    4   29 1
    11    5    6 ar
    12    5    8 1
    13    6    7 ar
    14    6   30 1
    15    7   31 1
    16    8    9 1
    17    8   32 1
    18    9   10 1
    19    9   33 1
    20    9   34 1
    21   10   11 1
    22   10   12 1
    23   10   24 1
    24   12   17 ar
    25   12   13 ar
    26   13   14 ar
    27   13   35 1
    28   14   15 ar
    29   14   20 1
    30   15   16 ar
    31   15   36 1
    32   16   17 ar
    33   16   37 1
    34   17   18 1
    35   18   19 1
    36   19   38 1
    37   19   39 1
    38   19   40 1
    39   20   21 1
    40   20   22 1
    41   20   23 1
    42   21   41 1
    43   21   42 1
    44   21   43 1
    45   22   44 1
    46   22   45 1
    47   22   46 1
    48   23   47 1
    49   23   48 1
    50   23   49 1
    51   24   50 1
@<TRIPOS>MOLECULE
ZINC66199875
   50    50     0     0     0
SMALL
USER_CHARGES

@<TRIPOS>ATOM
      1 C1         -0.0187    1.5258    0.0104 C.3       1 <0>        -0.1555
      2 C2          0.0021   -0.0041    0.0020 C.3       1 <0>        -0.1326
      3 C3          0.7421   -0.5109    1.2415 C.3       1 <0>         0.1362
      4 H1          0.2852   -0.0874    2.1360 H         1 <0>         0.1176
      5 C4          0.6554   -2.0374    1.2986 C.3       1 <0>        -0.1650
      6 N1          2.1476   -0.1038    1.1716 N.pl3     1 <0>        -0.6682
      7 C5          2.8685    0.0265    2.3029 C.2       1 <0>         0.5197
      8 S1          2.1417   -0.2835    3.8216 S.2       1 <0>        -0.5203
      9 N2          4.1616    0.4010    2.2386 N.am      1 <0>        -0.6482
     10 C6          4.8825    0.5314    3.3699 C.2       1 <0>         0.4874
     11 O1          4.3677    0.3118    4.4454 O.2       1 <0>        -0.3903
     12 C7          6.3284    0.9501    3.2980 C.3       1 <0>        -0.0631
     13 H2          6.8887    0.2223    2.7111 H         1 <0>         0.1074
     14 C8          6.4287    2.3255    2.6352 C.3       1 <0>        -0.1446
     15 C9          6.9008    1.0205    4.6902 C.ar      1 <0>        -0.0823
     16 C10         6.3463    1.8768    5.6231 C.ar      1 <0>        -0.0803
     17 C11         6.8714    1.9414    6.9002 C.ar      1 <0>        -0.1148
     18 C12         7.9507    1.1493    7.2446 C.ar      1 <0>        -0.0710
     19 C13         8.5046    0.2923    6.3120 C.ar      1 <0>        -0.1205
     20 C14         7.9768    0.2247    5.0362 C.ar      1 <0>        -0.1047
     21 C15         8.5237    1.2204    8.6366 C.3       1 <0>        -0.0786
     22 C16         7.8166    0.2010    9.5319 C.3       1 <0>        -0.0906
     23 C17         8.4810    0.1851   10.9100 C.3       1 <0>        -0.1484
     24 C18         6.3437    0.5877    9.6803 C.3       1 <0>        -0.1524
     25 H3          1.0039    1.9031    0.0027 H         1 <0>         0.0495
     26 H4         -0.5459    1.8868   -0.8726 H         1 <0>         0.0602
     27 H5         -0.5289    1.8773    0.9072 H         1 <0>         0.0607
     28 H6         -1.0205   -0.3814    0.0098 H         1 <0>         0.0887
     29 H7          0.5123   -0.3556   -0.8948 H         1 <0>         0.0675
     30 H8          1.1826   -2.3985    2.1817 H         1 <0>         0.0734
     31 H9         -0.3904   -2.3402    1.3506 H         1 <0>         0.0746
     32 H10         1.1123   -2.4609    0.4042 H         1 <0>         0.0538
     33 H11         2.5595    0.0718    0.3111 H         1 <0>         0.3959
     34 H12         4.5734    0.5767    1.3781 H         1 <0>         0.4072
     35 H13         7.4745    2.6283    2.5832 H         1 <0>         0.0772
     36 H14         6.0146    2.2746    1.6282 H         1 <0>         0.0598
     37 H15         5.8684    3.0533    3.2220 H         1 <0>         0.0670
     38 H16         5.5031    2.4956    5.3540 H         1 <0>         0.1181
     39 H17         6.4386    2.6109    7.6288 H         1 <0>         0.1215
     40 H18         9.3481   -0.3262    6.5810 H         1 <0>         0.1212
     41 H19         8.4072   -0.4476    4.3087 H         1 <0>         0.1199
     42 H20         9.5899    0.9961    8.6025 H         1 <0>         0.0716
     43 H21         8.3759    2.2223    9.0396 H         1 <0>         0.0722
     44 H22         7.8887   -0.7893    9.0823 H         1 <0>         0.0702
     45 H23         8.4089    1.1754   11.3597 H         1 <0>         0.0548
     46 H24         7.9772   -0.5412   11.5479 H         1 <0>         0.0557
     47 H25         9.5303   -0.0904   10.8043 H         1 <0>         0.0539
     48 H26         5.8399   -0.1385   10.3182 H         1 <0>         0.0532
     49 H27         6.2716    1.5780   10.1300 H         1 <0>         0.0530
     50 H28         5.8703    0.5991    8.6985 H         1 <0>         0.0618
@<TRIPOS>BOND
     1    1    2 1
     2    1   25 1
     3    1   26 1
     4    1   27 1
     5    2    3 1
     6    2   28 1
     7    2   29 1
     8    3    4 1
     9    3    5 1
    10    3    6 1
    11    5   30 1
    12    5   31 1
    13    5   32 1
    14    6    7 1
    15    6   33 1
    16    7    8 2
    17    7    9 1
    18    9   10 am
    19    9   34 1
    20   10   11 2
    21   10   12 1
    22   12   13 1
    23   12   14 1
    24   12   15 1
    25   14   35 1
    26   14   36 1
    27   14   37 1
    28   15   20 ar
    29   15   16 ar
    30   16   17 ar
    31   16   38 1
    32   17   18 ar
    33   17   39 1
    34   18   19 ar
    35   18   21 1
    36   19   20 ar
    37   19   40 1
    38   20   41 1
    39   21   22 1
    40   21   42 1
    41   21   43 1
    42   22   23 1
    43   22   24 1
    44   22   44 1
    45   23   45 1
    46   23   46 1
    47   23   47 1
    48   24   48 1
    49   24   49 1
    50   24   50 1
@<TRIPOS>MOLECULE
ZINC17000012
   33    33     0     0     0
SMALL
USER_CHARGES
(4Z)-1,1,1-trifluoro-4-(phenylhydrazono)-2-(trifluoromethyl)pentan-2-ol
@<TRIPOS>ATOM
      1 C1         -0.8311   -1.6249   -0.0417 C.3       1 <0>        -0.0867
      2 C2         -1.1543   -0.1533   -0.0713 C.2       1 <0>         0.0755
      3 N1         -0.2212    0.7033   -0.2572 N.2       1 <0>        -0.2093
      4 N2         -0.5001    2.0734   -0.1676 N.pl3     1 <0>        -0.5890
      5 C3          0.5319    3.0053   -0.2915 C.ar      1 <0>         0.2104
      6 C4          1.8372    2.5757   -0.4980 C.ar      1 <0>        -0.1567
      7 C5          2.8547    3.5006   -0.6249 C.ar      1 <0>        -0.0841
      8 C6          2.5776    4.8526   -0.5362 C.ar      1 <0>        -0.1618
      9 C7          1.2805    5.2836   -0.3255 C.ar      1 <0>        -0.0795
     10 C8          0.2571    4.3647   -0.2029 C.ar      1 <0>        -0.1809
     11 C9         -2.5758    0.3099    0.1179 C.3       1 <0>        -0.1571
     12 C10        -3.0311   -0.0102    1.5430 C.3       1 <0>         0.0592
     13 C11        -2.1252    0.7123    2.5422 C.3       1 <0>         0.4733
     14 F1         -2.0981    2.0788    2.2437 F         1 <0>        -0.1619
     15 F2         -2.6196    0.5277    3.8379 F         1 <0>        -0.1569
     16 F3         -0.8297    0.1909    2.4588 F         1 <0>        -0.1465
     17 C12        -4.4755    0.4568    1.7340 C.3       1 <0>         0.4312
     18 F4         -5.3038   -0.2038    0.8203 F         1 <0>        -0.1636
     19 F5         -4.8919    0.1641    3.0371 F         1 <0>        -0.1547
     20 F6         -4.5516    1.8371    1.5191 F         1 <0>        -0.1638
     21 O1         -2.9533   -1.4201    1.7626 O.3       1 <0>        -0.4949
     22 H1         -0.5200   -1.9085    0.9638 H         1 <0>         0.0902
     23 H2         -1.7152   -2.1968   -0.3233 H         1 <0>         0.0772
     24 H3         -0.0242   -1.8340   -0.7441 H         1 <0>         0.0810
     25 H4         -1.4108    2.3745   -0.0234 H         1 <0>         0.3864
     26 H5          2.0550    1.5199   -0.5630 H         1 <0>         0.1320
     27 H6          3.8689    3.1676   -0.7892 H         1 <0>         0.1240
     28 H7          3.3759    5.5736   -0.6321 H         1 <0>         0.1213
     29 H8          1.0676    6.3402   -0.2571 H         1 <0>         0.1250
     30 H9         -0.7555    4.7020   -0.0380 H         1 <0>         0.1204
     31 H10        -2.6326    1.3856   -0.0487 H         1 <0>         0.1013
     32 H11        -3.2227   -0.2027   -0.5940 H         1 <0>         0.1307
     33 H12        -3.5037   -1.9424    1.1631 H         1 <0>         0.4085
@<TRIPOS>BOND
     1    1    2 1
     2    1   22 1
     3    1   23 1
     4    1   24 1
     5    2    3 2
     6    2   11 1
     7    3    4 1
     8    4    5 1
     9    4   25 1
    10    5   10 ar
    11    5    6 ar
    12    6    7 ar
    13    6   26 1
    14    7    8 ar
    15    7   27 1
    16    8    9 ar
    17    8   28 1
    18    9   10 ar
    19    9   29 1
    20   10   30 1
    21   11   12 1
    22   11   31 1
    23   11   32 1
    24   12   13 1
    25   12   17 1
    26   12   21 1
    27   13   14 1
    28   13   15 1
    29   13   16 1
    30   17   18 1
    31   17   19 1
    32   17   20 1
    33   21   33 1
@<TRIPOS>MOLECULE
ZINC32230362
   50    51     0     0     0
SMALL
USER_CHARGES
(2R)-1-(4-tert-butylanilino)-3-(3-methylphenoxy)propan-2-ol
@<TRIPOS>ATOM
      1 C1         -2.5137    0.9767    0.0188 C.3       1 <0>        -0.1193
      2 C2         -1.2201    1.7497    0.0174 C.ar      1 <0>        -0.0456
      3 C3         -0.0126    1.0758    0.0080 C.ar      1 <0>        -0.1591
      4 C4          1.1758    1.7821    0.0004 C.ar      1 <0>        -0.0755
      5 C5          1.1598    3.1636    0.0075 C.ar      1 <0>        -0.2171
      6 C6         -0.0501    3.8419    0.0227 C.ar      1 <0>         0.1339
      7 C7         -1.2415    3.1307    0.0307 C.ar      1 <0>        -0.1541
      8 O1         -0.0685    5.2008    0.0293 O.3       1 <0>        -0.3050
      9 C8          1.1957    5.8668    0.0199 C.3       1 <0>         0.0682
     10 C9          0.9747    7.3807    0.0292 C.3       1 <0>         0.1116
     11 H1          0.2952    7.6795    0.8410 H         1 <0>         0.0706
     12 C10         2.3241    8.0925    0.1449 C.3       1 <0>         0.1011
     13 N1          2.1058    9.5353    0.2739 N.pl3     1 <0>        -0.7589
     14 C11         3.1970   10.3988    0.3948 C.ar      1 <0>         0.2153
     15 C12         4.4898    9.8905    0.3986 C.ar      1 <0>        -0.1976
     16 C13         5.5666   10.7475    0.5134 C.ar      1 <0>        -0.0725
     17 C14         5.3587   12.1092    0.6351 C.ar      1 <0>        -0.1264
     18 C15         4.0729   12.6180    0.6370 C.ar      1 <0>        -0.0667
     19 C16         2.9917   11.7672    0.5172 C.ar      1 <0>        -0.1922
     20 C17         6.5361   13.0408    0.7655 C.3       1 <0>        -0.0229
     21 C18         6.4404   13.8014    2.0896 C.3       1 <0>        -0.1401
     22 C19         7.8335   12.2303    0.7356 C.3       1 <0>        -0.1460
     23 C20         6.5298   14.0364   -0.3962 C.3       1 <0>        -0.1401
     24 O2          0.3304    7.7755   -1.1837 O.3       1 <0>        -0.5843
     25 H2         -2.2965   -0.1016    0.0071 H         1 <0>         0.0689
     26 H3         -3.1005    1.2423   -0.8729 H         1 <0>         0.0735
     27 H4         -3.0883    1.2252    0.9233 H         1 <0>         0.0733
     28 H5          0.0021   -0.0041    0.0020 H         1 <0>         0.1242
     29 H6          2.1175    1.2535   -0.0114 H         1 <0>         0.1255
     30 H7          2.0884    3.7150    0.0016 H         1 <0>         0.1258
     31 H8         -2.1848    3.6566    0.0422 H         1 <0>         0.1300
     32 H9          1.7706    5.5747    0.9110 H         1 <0>         0.0806
     33 H10         1.7529    5.5831   -0.8851 H         1 <0>         0.0746
     34 H11         2.8593    7.7219    1.0316 H         1 <0>         0.0675
     35 H12         2.9231    7.8914   -0.7555 H         1 <0>         0.0711
     36 H13         1.0825    9.9387    0.2756 H         1 <0>         0.4147
     37 H14         4.6527    8.8267    0.3080 H         1 <0>         0.1162
     38 H15         6.5722   10.3533    0.5123 H         1 <0>         0.1239
     39 H16         3.9140   13.6820    0.7326 H         1 <0>         0.1188
     40 H17         1.9877   12.1652    0.5184 H         1 <0>         0.1183
     41 H18         7.2998   14.4814    2.1848 H         1 <0>         0.0566
     42 H19         6.4450   13.0856    2.9248 H         1 <0>         0.0555
     43 H20         5.5076   14.3841    2.1111 H         1 <0>         0.0556
     44 H21         8.6929   12.9103    0.8308 H         1 <0>         0.0573
     45 H22         7.9023   11.6834   -0.2163 H         1 <0>         0.0578
     46 H23         7.8380   11.5145    1.5709 H         1 <0>         0.0577
     47 H24         7.3892   14.7164   -0.3010 H         1 <0>         0.0566
     48 H25         5.5971   14.6191   -0.3746 H         1 <0>         0.0556
     49 H26         6.5986   13.4895   -1.3481 H         1 <0>         0.0556
     50 H27         0.0883    8.8342   -1.3585 H         1 <0>         0.4075
@<TRIPOS>BOND
     1    1    2 1
     2    1   25 1
     3    1   26 1
     4    1   27 1
     5    2    7 ar
     6    2    3 ar
     7    3    4 ar
     8    3   28 1
     9    4    5 ar
    10    4   29 1
    11    5    6 ar
    12    5   30 1
    13    6    7 ar
    14    6    8 1
    15    7   31 1
    16    8    9 1
    17    9   10 1
    18    9   32 1
    19    9   33 1
    20   10   11 1
    21   10   12 1
    22   10   24 1
    23   12   13 1
    24   12   34 1
    25   12   35 1
    26   13   14 1
    27   13   36 1
    28   14   19 ar
    29   14   15 ar
    30   15   16 ar
    31   15   37 1
    32   16   17 ar
    33   16   38 1
    34   17   18 ar
    35   17   20 1
    36   18   19 ar
    37   18   39 1
    38   19   40 1
    39   20   21 1
    40   20   22 1
    41   20   23 1
    42   21   41 1
    43   21   42 1
    44   21   43 1
    45   22   44 1
    46   22   45 1
    47   22   46 1
    48   23   47 1
    49   23   48 1
    50   23   49 1
    51   24   50 1
@<TRIPOS>MOLECULE
ZINC37893569
   41    42     0     0     0
SMALL
USER_CHARGES

@<TRIPOS>ATOM
      1 C1         -0.0184    1.5028    0.0103 C.3       1 <0>        -0.1176
      2 C2          0.0021   -0.0041    0.0020 C.ar      1 <0>        -0.0456
      3 C3          0.0057   -0.6883   -1.1997 C.ar      1 <0>        -0.1582
      4 C4          0.0244   -2.0706   -1.2107 C.ar      1 <0>        -0.0756
      5 C5          0.0391   -2.7719   -0.0203 C.ar      1 <0>        -0.2169
      6 C6          0.0355   -2.0879    1.1864 C.ar      1 <0>         0.1312
      7 C7          0.0229   -0.7004    1.1947 C.ar      1 <0>        -0.1524
      8 O1          0.0500   -2.7755    2.3585 O.3       1 <0>        -0.3032
      9 C8          0.0686   -4.2018    2.2738 C.3       1 <0>         0.0306
     10 C9          0.0829   -4.7963    3.6835 C.3       1 <0>         0.1013
     11 H1          0.9218   -4.3832    4.2435 H         1 <0>         0.1172
     12 C10         0.2284   -6.3168    3.5944 C.3       1 <0>         0.0943
     13 N1          0.2421   -6.8860    4.9442 N.pl3     1 <0>        -0.7370
     14 C11         0.3667   -8.2662    5.1188 C.ar      1 <0>         0.2215
     15 C12         0.4835   -9.0999    4.0138 C.ar      1 <0>        -0.1699
     16 C13         0.6070  -10.4647    4.1903 C.ar      1 <0>        -0.0464
     17 C14         0.6140  -11.0008    5.4662 C.ar      1 <0>        -0.1445
     18 C15         0.4979  -10.1732    6.5675 C.ar      1 <0>        -0.0673
     19 C16         0.3798   -8.8074    6.3980 C.ar      1 <0>        -0.1436
     20 C17         0.2596   -7.9059    7.5996 C.3       1 <0>        -0.1096
     21 Br1         0.7661  -11.6010    2.6872 Br        1 <0>        -0.0528
     22 O2         -1.1396   -4.4731    4.3492 O.3       1 <0>        -0.5456
     23 H2          1.0042    1.8801    0.0026 H         1 <0>         0.0748
     24 H3         -0.5455    1.8639   -0.8728 H         1 <0>         0.0703
     25 H4         -0.5286    1.8543    0.9071 H         1 <0>         0.0695
     26 H5         -0.0065   -0.1419   -2.1312 H         1 <0>         0.1245
     27 H6          0.0272   -2.6027   -2.1505 H         1 <0>         0.1257
     28 H7          0.0530   -3.8518   -0.0294 H         1 <0>         0.1255
     29 H8          0.0248   -0.1655    2.1329 H         1 <0>         0.1308
     30 H9         -0.8194   -4.5459    1.7434 H         1 <0>         0.0699
     31 H10         0.9604   -4.5222    1.7353 H         1 <0>         0.0754
     32 H11        -0.6105   -6.7299    3.0343 H         1 <0>         0.0685
     33 H12         1.1608   -6.5634    3.0866 H         1 <0>         0.0746
     34 H13         0.1647   -6.3044    5.7166 H         1 <0>         0.4083
     35 H14         0.4773   -8.6818    3.0181 H         1 <0>         0.1289
     36 H15         0.7099  -12.0679    5.6018 H         1 <0>         0.1298
     37 H16         0.5037  -10.5947    7.5619 H         1 <0>         0.1318
     38 H17        -0.7921   -7.7847    7.8591 H         1 <0>         0.0709
     39 H18         0.7927   -8.3487    8.4408 H         1 <0>         0.0712
     40 H19         0.6912   -6.9322    7.3679 H         1 <0>         0.0611
     41 H20        -1.9300   -4.8098    3.9055 H         1 <0>         0.3785
@<TRIPOS>BOND
     1    1    2 1
     2    1   23 1
     3    1   24 1
     4    1   25 1
     5    2    7 ar
     6    2    3 ar
     7    3    4 ar
     8    3   26 1
     9    4    5 ar
    10    4   27 1
    11    5    6 ar
    12    5   28 1
    13    6    7 ar
    14    6    8 1
    15    7   29 1
    16    8    9 1
    17    9   10 1
    18    9   30 1
    19    9   31 1
    20   10   11 1
    21   10   12 1
    22   10   22 1
    23   12   13 1
    24   12   32 1
    25   12   33 1
    26   13   14 1
    27   13   34 1
    28   14   19 ar
    29   14   15 ar
    30   15   16 ar
    31   15   35 1
    32   16   17 ar
    33   16   21 1
    34   17   18 ar
    35   17   36 1
    36   18   19 ar
    37   18   37 1
    38   19   20 1
    39   20   38 1
    40   20   39 1
    41   20   40 1
    42   22   41 1
@<TRIPOS>MOLECULE
ZINC49927972
   50    51     0     0     0
SMALL
USER_CHARGES

@<TRIPOS>ATOM
      1 C1         -0.0187    1.5258    0.0104 C.3       1 <0>        -0.1556
      2 C2          0.0021   -0.0041    0.0020 C.3       1 <0>        -0.1156
      3 C3         -1.4333   -0.5336    0.0129 C.3       1 <0>        -0.0548
      4 H1         -1.9862   -0.1019   -0.8214 H         1 <0>         0.0779
      5 C4         -2.1103   -0.1453    1.3289 C.3       1 <0>        -0.1466
      6 C5         -1.4159   -2.0348   -0.1192 C.ar      1 <0>        -0.0722
      7 C6         -0.7736   -2.8049    0.8322 C.ar      1 <0>        -0.1112
      8 C7         -0.7576   -4.1818    0.7111 C.ar      1 <0>        -0.1070
      9 C8         -1.3844   -4.7887   -0.3612 C.ar      1 <0>        -0.1226
     10 C9         -2.0275   -4.0186   -1.3121 C.ar      1 <0>        -0.1084
     11 C10        -2.0471   -2.6419   -1.1887 C.ar      1 <0>        -0.1141
     12 C11        -1.3662   -6.2897   -0.4938 C.3       1 <0>         0.1538
     13 H2         -1.2358   -6.7398    0.4903 H         1 <0>         0.1103
     14 C12        -0.2087   -6.7073   -1.4031 C.3       1 <0>        -0.1570
     15 C13        -0.1131   -8.2339   -1.4383 C.3       1 <0>         0.1293
     16 N1          0.9952   -8.6338   -2.3090 N.pl3     1 <0>        -0.7529
     17 C14         1.2807   -9.9904   -2.4998 C.ar      1 <0>         0.1820
     18 C15         0.5102  -10.9580   -1.8685 C.ar      1 <0>        -0.1568
     19 C16         0.7924  -12.2966   -2.0578 C.ar      1 <0>        -0.1023
     20 C17         1.8451  -12.6747   -2.8780 C.ar      1 <0>         0.0688
     21 C18         2.6155  -11.7089   -3.5085 C.ar      1 <0>        -0.1586
     22 C19         2.3311  -10.3699   -3.3249 C.ar      1 <0>        -0.1574
     23 O1          2.1223  -13.9931   -3.0638 O.3       1 <0>        -0.3219
     24 C20         3.2204  -14.3106   -3.9213 C.3       1 <0>         0.0292
     25 O2         -2.6009   -6.7329   -1.0605 O.3       1 <0>        -0.5519
     26 H3          1.0039    1.9031    0.0027 H         1 <0>         0.0551
     27 H4         -0.5459    1.8868   -0.8726 H         1 <0>         0.0543
     28 H5         -0.5289    1.8773    0.9072 H         1 <0>         0.0579
     29 H6          0.5123   -0.3556   -0.8948 H         1 <0>         0.0622
     30 H7          0.5293   -0.3651    0.8851 H         1 <0>         0.0635
     31 H8         -3.1329   -0.5225    1.3366 H         1 <0>         0.0557
     32 H9         -1.5574   -0.5770    2.1631 H         1 <0>         0.0567
     33 H10        -2.1228    0.9405    1.4244 H         1 <0>         0.0621
     34 H11        -0.2839   -2.3308    1.6700 H         1 <0>         0.1227
     35 H12        -0.2552   -4.7835    1.4540 H         1 <0>         0.1230
     36 H13        -2.5169   -4.4926   -2.1501 H         1 <0>         0.1193
     37 H14        -2.5528   -2.0404   -1.9296 H         1 <0>         0.1223
     38 H15        -0.3844   -6.3310   -2.4109 H         1 <0>         0.0740
     39 H16         0.7233   -6.2937   -1.0180 H         1 <0>         0.0805
     40 H17         0.0625   -8.6103   -0.4306 H         1 <0>         0.0588
     41 H18        -1.0452   -8.6476   -1.8234 H         1 <0>         0.0669
     42 H19         1.5310   -7.9583   -2.7532 H         1 <0>         0.3974
     43 H20        -0.3093  -10.6638   -1.2295 H         1 <0>         0.1280
     44 H21         0.1935  -13.0493   -1.5666 H         1 <0>         0.1298
     45 H22         3.4351  -12.0042   -4.1467 H         1 <0>         0.1266
     46 H23         2.9280   -9.6181   -3.8198 H         1 <0>         0.1215
     47 H24         3.3323  -15.3931   -3.9827 H         1 <0>         0.0977
     48 H25         3.0324  -13.9078   -4.9165 H         1 <0>         0.0524
     49 H26         4.1340  -13.8731   -3.5188 H         1 <0>         0.0524
     50 H27        -2.7830   -6.3711   -1.9385 H         1 <0>         0.3746
@<TRIPOS>BOND
     1    1    2 1
     2    1   26 1
     3    1   27 1
     4    1   28 1
     5    2    3 1
     6    2   29 1
     7    2   30 1
     8    3    4 1
     9    3    5 1
    10    3    6 1
    11    5   31 1
    12    5   32 1
    13    5   33 1
    14    6   11 ar
    15    6    7 ar
    16    7    8 ar
    17    7   34 1
    18    8    9 ar
    19    8   35 1
    20    9   10 ar
    21    9   12 1
    22   10   11 ar
    23   10   36 1
    24   11   37 1
    25   12   13 1
    26   12   14 1
    27   12   25 1
    28   14   15 1
    29   14   38 1
    30   14   39 1
    31   15   16 1
    32   15   40 1
    33   15   41 1
    34   16   17 1
    35   16   42 1
    36   17   22 ar
    37   17   18 ar
    38   18   19 ar
    39   18   43 1
    40   19   20 ar
    41   19   44 1
    42   20   21 ar
    43   20   23 1
    44   21   22 ar
    45   21   45 1
    46   22   46 1
    47   23   24 1
    48   24   47 1
    49   24   48 1
    50   24   49 1
    51   25   50 1
@<TRIPOS>MOLECULE
ZINC66189485
   45    46     0     0     0
SMALL
USER_CHARGES

@<TRIPOS>ATOM
      1 C1         -0.0187    1.5258    0.0104 C.3       1 <0>        -0.1474
      2 C2          0.0021   -0.0041    0.0020 C.3       1 <0>        -0.0952
      3 C3         -1.4333   -0.5336    0.0129 C.3       1 <0>        -0.1472
      4 C4          0.7182   -0.4975   -1.2568 C.3       1 <0>         0.0650
      5 O1          2.0903   -0.1010   -1.2105 O.3       1 <0>        -0.3163
      6 C5          2.8734   -0.4631   -2.2619 C.ar      1 <0>         0.0775
      7 C6          2.3289   -1.1798   -3.3172 C.ar      1 <0>        -0.1598
      8 C7          3.1234   -1.5479   -4.3852 C.ar      1 <0>        -0.1523
      9 C8          4.4677   -1.2003   -4.4024 C.ar      1 <0>         0.1798
     10 C9          5.0120   -0.4828   -3.3454 C.ar      1 <0>        -0.1555
     11 C10         4.2147   -0.1106   -2.2808 C.ar      1 <0>        -0.1038
     12 N1          5.2736   -1.5732   -5.4839 N.pl3     1 <0>        -0.7491
     13 C11         6.6918   -1.2063   -5.5015 C.3       1 <0>         0.1176
     14 C12         7.3384   -1.7310   -6.7850 C.3       1 <0>         0.1175
     15 N2          8.7566   -1.3641   -6.8026 N.pl3     1 <0>        -0.7435
     16 C13         9.5619   -1.7368   -7.8835 C.ar      1 <0>         0.1883
     17 C14         9.0179   -2.4496   -8.9434 C.ar      1 <0>        -0.1740
     18 C15         9.8158   -2.8160  -10.0100 C.ar      1 <0>        -0.0796
     19 C16        11.1556   -2.4744  -10.0235 C.ar      1 <0>        -0.1493
     20 C17        11.7024   -1.7648   -8.9700 C.ar      1 <0>        -0.1053
     21 C18        10.9085   -1.3893   -7.9019 C.ar      1 <0>         0.0199
     22 F1         11.4412   -0.6909   -6.8754 F         1 <0>        -0.1436
     23 H1          1.0039    1.9031    0.0027 H         1 <0>         0.0625
     24 H2         -0.5459    1.8868   -0.8726 H         1 <0>         0.0537
     25 H3         -0.5289    1.8773    0.9072 H         1 <0>         0.0568
     26 H4          0.5293   -0.3651    0.8851 H         1 <0>         0.0809
     27 H5         -1.9605   -0.1726   -0.8702 H         1 <0>         0.0578
     28 H6         -1.4185   -1.6235    0.0069 H         1 <0>         0.0576
     29 H7         -1.9435   -0.1821    0.9097 H         1 <0>         0.0651
     30 H8          0.6556   -1.5845   -1.3079 H         1 <0>         0.0592
     31 H9          0.2444   -0.0644   -2.1377 H         1 <0>         0.0597
     32 H10         1.2835   -1.4504   -3.3036 H         1 <0>         0.1267
     33 H11         2.6994   -2.1062   -5.2067 H         1 <0>         0.1230
     34 H12         6.0574   -0.2120   -3.3579 H         1 <0>         0.1263
     35 H13         4.6368    0.4516   -1.4609 H         1 <0>         0.1299
     36 H14         4.8931   -2.0747   -6.2220 H         1 <0>         0.4003
     37 H15         6.7868   -0.1211   -5.4643 H         1 <0>         0.0657
     38 H16         7.1912   -1.6446   -4.6375 H         1 <0>         0.0658
     39 H17         7.2434   -2.8163   -6.8223 H         1 <0>         0.0683
     40 H18         6.8390   -1.2927   -7.6490 H         1 <0>         0.0683
     41 H19         9.1370   -0.8626   -6.0646 H         1 <0>         0.4054
     42 H20         7.9717   -2.7177   -8.9339 H         1 <0>         0.1295
     43 H21         9.3924   -3.3704  -10.8344 H         1 <0>         0.1290
     44 H22        11.7766   -2.7627  -10.8588 H         1 <0>         0.1300
     45 H23        12.7493   -1.4999   -8.9836 H         1 <0>         0.1351
@<TRIPOS>BOND
     1    1    2 1
     2    1   23 1
     3    1   24 1
     4    1   25 1
     5    2    3 1
     6    2    4 1
     7    2   26 1
     8    3   27 1
     9    3   28 1
    10    3   29 1
    11    4    5 1
    12    4   30 1
    13    4   31 1
    14    5    6 1
    15    6   11 ar
    16    6    7 ar
    17    7    8 ar
    18    7   32 1
    19    8    9 ar
    20    8   33 1
    21    9   10 ar
    22    9   12 1
    23   10   11 ar
    24   10   34 1
    25   11   35 1
    26   12   13 1
    27   12   36 1
    28   13   14 1
    29   13   37 1
    30   13   38 1
    31   14   15 1
    32   14   39 1
    33   14   40 1
    34   15   16 1
    35   15   41 1
    36   16   21 ar
    37   16   17 ar
    38   17   18 ar
    39   17   42 1
    40   18   19 ar
    41   18   43 1
    42   19   20 ar
    43   19   44 1
    44   20   21 ar
    45   20   45 1
    46   21   22 1
@<TRIPOS>MOLECULE
ZINC06439426
   57    60     0     0     0
SMALL
USER_CHARGES
3-(3-benzyloxyphenyl)-N-ethoxy-3-(1H-indol-3-yl)propanamide
@<TRIPOS>ATOM
      1 C1          4.7959    1.2127   -0.0372 C.3       1 <0>        -0.1473
      2 C2          3.5238    2.0627   -0.0205 C.3       1 <0>         0.0282
      3 O1          2.3793    1.2071   -0.0142 O.3       1 <0>        -0.1453
      4 N1          1.1435    1.8983    0.0013 N.am      1 <0>        -0.6059
      5 C3         -0.0144    1.2086    0.0087 C.2       1 <0>         0.5199
      6 O2          0.0021   -0.0041    0.0020 O.2       1 <0>        -0.4958
      7 C4         -1.3296    1.9443    0.0189 C.3       1 <0>        -0.1177
      8 C5         -2.4789    0.9344    0.0189 C.3       1 <0>         0.0441
      9 H1         -2.3587    0.2472    0.8564 H         1 <0>         0.0979
     10 C6         -3.7899    1.6653    0.1529 C.ar      1 <0>        -0.0301
     11 C7         -4.1599    2.6001   -0.7966 C.ar      1 <0>        -0.1539
     12 C8         -5.3641    3.2689   -0.6790 C.ar      1 <0>        -0.0759
     13 C9         -6.1964    3.0122    0.3936 C.ar      1 <0>        -0.2128
     14 C10        -5.8251    2.0788    1.3501 C.ar      1 <0>         0.1347
     15 C11        -4.6184    1.4051    1.2270 C.ar      1 <0>        -0.1421
     16 O3         -6.6422    1.8242    2.4058 O.3       1 <0>        -0.3080
     17 C12        -7.8686    2.5549    2.4679 C.3       1 <0>         0.1030
     18 C13        -8.6372    2.1429    3.6970 C.ar      1 <0>        -0.0987
     19 C14        -9.5384    1.0968    3.6303 C.ar      1 <0>        -0.0952
     20 C15       -10.2395    0.7155    4.7590 C.ar      1 <0>        -0.1227
     21 C16       -10.0473    1.3872    5.9518 C.ar      1 <0>        -0.1089
     22 C17        -9.1502    2.4369    6.0171 C.ar      1 <0>        -0.1231
     23 C18        -8.4450    2.8146    4.8898 C.ar      1 <0>        -0.0954
     24 C19        -2.4660    0.1587   -1.2731 C.2       1 <0>        -0.1449
     25 C20        -2.5881    0.6657   -2.5100 C.2       1 <0>         0.0447
     26 N2         -2.5298   -0.3411   -3.4348 N.pl3     1 <0>        -0.5955
     27 H2         -2.5951   -0.2202   -4.3951 H         1 <0>         0.4140
     28 C21        -2.3645   -1.5514   -2.7994 C.ar      1 <0>         0.0930
     29 C22        -2.3114   -1.2908   -1.4177 C.ar      1 <0>        -0.0763
     30 C23        -2.1533   -2.3445   -0.5159 C.ar      1 <0>        -0.0527
     31 C24        -2.0402   -3.6245   -0.9812 C.ar      1 <0>        -0.1507
     32 C25        -2.0862   -3.8862   -2.3434 C.ar      1 <0>        -0.0987
     33 C26        -2.2470   -2.8617   -3.2507 C.ar      1 <0>        -0.1361
     34 H3          5.6689    1.8653   -0.0421 H         1 <0>         0.0810
     35 H4          4.8210    0.5788    0.8492 H         1 <0>         0.0684
     36 H5          4.8040    0.5884   -0.9307 H         1 <0>         0.0677
     37 H6          3.4987    2.6965   -0.9069 H         1 <0>         0.0596
     38 H7          3.5157    2.6870    0.8730 H         1 <0>         0.0606
     39 H8          1.1304    2.8682    0.0067 H         1 <0>         0.4038
     40 H9         -1.3916    2.5653    0.9126 H         1 <0>         0.1034
     41 H10        -1.4000    2.5749   -0.8673 H         1 <0>         0.0984
     42 H11        -3.5088    2.8052   -1.6335 H         1 <0>         0.1212
     43 H12        -5.6527    3.9955   -1.4241 H         1 <0>         0.1243
     44 H13        -7.1350    3.5381    0.4873 H         1 <0>         0.1261
     45 H14        -4.3269    0.6781    1.9707 H         1 <0>         0.1316
     46 H15        -7.6536    3.6224    2.5148 H         1 <0>         0.0716
     47 H16        -8.4634    2.3427    1.5794 H         1 <0>         0.0713
     48 H17        -9.6918    0.5749    2.6973 H         1 <0>         0.1242
     49 H18       -10.9401   -0.1049    4.7080 H         1 <0>         0.1259
     50 H19       -10.5978    1.0916    6.8327 H         1 <0>         0.1249
     51 H20        -9.0001    2.9617    6.9490 H         1 <0>         0.1258
     52 H21        -7.7441    3.6347    4.9409 H         1 <0>         0.1241
     53 H22        -2.7134    1.7132   -2.7411 H         1 <0>         0.1644
     54 H23        -2.1163   -2.1485    0.5455 H         1 <0>         0.1185
     55 H24        -1.9137   -4.4390   -0.2833 H         1 <0>         0.1194
     56 H25        -1.9948   -4.9029   -2.6959 H         1 <0>         0.1220
     57 H26        -2.2819   -3.0755   -4.3088 H         1 <0>         0.1160
@<TRIPOS>BOND
     1    1    2 1
     2    1   34 1
     3    1   35 1
     4    1   36 1
     5    2    3 1
     6    2   37 1
     7    2   38 1
     8    3    4 1
     9    4    5 am
    10    4   39 1
    11    5    6 2
    12    5    7 1
    13    7    8 1
    14    7   40 1
    15    7   41 1
    16    8    9 1
    17    8   10 1
    18    8   24 1
    19   10   15 ar
    20   10   11 ar
    21   11   12 ar
    22   11   42 1
    23   12   13 ar
    24   12   43 1
    25   13   14 ar
    26   13   44 1
    27   14   15 ar
    28   14   16 1
    29   15   45 1
    30   16   17 1
    31   17   18 1
    32   17   46 1
    33   17   47 1
    34   18   23 ar
    35   18   19 ar
    36   19   20 ar
    37   19   48 1
    38   20   21 ar
    39   20   49 1
    40   21   22 ar
    41   21   50 1
    42   22   23 ar
    43   22   51 1
    44   23   52 1
    45   24   29 1
    46   24   25 2
    47   25   26 1
    48   25   53 1
    49   26   27 1
    50   26   28 1
    51   28   33 ar
    52   28   29 ar
    53   29   30 ar
    54   30   31 ar
    55   30   54 1
    56   31   32 ar
    57   31   55 1
    58   32   33 ar
    59   32   56 1
    60   33   57 1
@<TRIPOS>MOLECULE
ZINC21731305
   45    46     0     0     0
SMALL
USER_CHARGES
(2R)-2-[[5-[(3-chloro-2-methyl-phenyl)amino]-1,3,4-thiadiazol-2-yl]sulfanyl]-N-isobutyl-propanamide
@<TRIPOS>ATOM
      1 C1         -0.0477    1.2616   -0.0020 C.3       1 <0>        -0.1117
      2 C2         -0.7511    1.4321    1.3198 C.ar      1 <0>        -0.1166
      3 C3         -0.0122    1.5913    2.4855 C.ar      1 <0>         0.1795
      4 C4         -0.6646    1.7487    3.7019 C.ar      1 <0>        -0.1515
      5 C5         -2.0450    1.7465    3.7493 C.ar      1 <0>        -0.0784
      6 C6         -2.7782    1.5875    2.5881 C.ar      1 <0>        -0.1313
      7 C7         -2.1319    1.4360    1.3732 C.ar      1 <0>        -0.0096
      8 Cl1        -3.0569    1.2444   -0.0833 Cl        1 <0>        -0.0603
      9 N1          1.3840    1.5936    2.4346 N.pl3     1 <0>        -0.6126
     10 C8          2.1204    1.9276    3.5657 C.2       1 <0>         0.3369
     11 N2          1.7014    2.3724    4.7343 N.2       1 <0>        -0.3584
     12 N3          2.6108    2.6399    5.7313 N.2       1 <0>        -0.2788
     13 C9          3.8992    2.4608    5.5096 C.2       1 <0>         0.0331
     14 S1          3.8875    1.8762    3.8217 S.3       1 <0>         0.0212
     15 S2          5.2657    2.7270    6.5896 S.3       1 <0>         0.1421
     16 C10         4.5026    3.3201    8.1248 C.3       1 <0>        -0.1256
     17 H1          3.7288    2.7084    8.6117 H         1 <0>         0.1248
     18 C11         3.8346    4.6732    7.8726 C.3       1 <0>        -0.1492
     19 C12         5.5618    3.4727    9.1858 C.2       1 <0>         0.5331
     20 O1          6.7173    3.6575    8.8671 O.2       1 <0>        -0.5260
     21 N4          5.2250    3.4037   10.4890 N.am      1 <0>        -0.7307
     22 C13         6.2547    3.5520   11.5205 C.3       1 <0>         0.1248
     23 C14         5.6116    3.4341   12.9038 C.3       1 <0>        -0.1071
     24 C15         5.0543    2.0212   13.0884 C.3       1 <0>        -0.1518
     25 C16         6.6626    3.7125   13.9803 C.3       1 <0>        -0.1487
     26 H2          1.0406    1.2846    0.1562 H         1 <0>         0.0574
     27 H3         -0.3371    2.0785   -0.6794 H         1 <0>         0.0829
     28 H4         -0.3332    0.2972   -0.4475 H         1 <0>         0.0823
     29 H5         -0.0928    1.8723    4.6098 H         1 <0>         0.1704
     30 H6         -2.5523    1.8688    4.6949 H         1 <0>         0.1371
     31 H7         -3.8575    1.5858    2.6282 H         1 <0>         0.1355
     32 H8          1.9007    1.3312    1.4996 H         1 <0>         0.4565
     33 H9          3.3719    5.0328    8.8035 H         1 <0>         0.0744
     34 H10         3.0615    4.5617    7.0981 H         1 <0>         0.0853
     35 H11         4.5902    5.3978    7.5349 H         1 <0>         0.0737
     36 H12         4.1770    3.2360   10.7781 H         1 <0>         0.4237
     37 H13         7.0113    2.7628   11.3994 H         1 <0>         0.0708
     38 H14         6.7336    4.5373   11.4216 H         1 <0>         0.0698
     39 H15         4.7943    4.1650   12.9917 H         1 <0>         0.0783
     40 H16         4.5920    1.9365   14.0829 H         1 <0>         0.0602
     41 H17         5.8716    1.2903   13.0005 H         1 <0>         0.0588
     42 H18         4.2987    1.8211   12.3145 H         1 <0>         0.0547
     43 H19         6.2002    3.6277   14.9748 H         1 <0>         0.0624
     44 H20         7.0632    4.7283   13.8476 H         1 <0>         0.0592
     45 H21         7.4800    2.9816   13.8924 H         1 <0>         0.0595
@<TRIPOS>BOND
     1    1    2 1
     2    1   26 1
     3    1   27 1
     4    1   28 1
     5    2    7 ar
     6    2    3 ar
     7    3    4 ar
     8    3    9 1
     9    4    5 ar
    10    4   29 1
    11    5    6 ar
    12    5   30 1
    13    6    7 ar
    14    6   31 1
    15    7    8 1
    16    9   10 1
    17    9   32 1
    18   10   14 1
    19   10   11 2
    20   11   12 1
    21   12   13 2
    22   13   14 1
    23   13   15 1
    24   15   16 1
    25   16   17 1
    26   16   18 1
    27   16   19 1
    28   18   33 1
    29   18   34 1
    30   18   35 1
    31   19   20 2
    32   19   21 am
    33   21   22 1
    34   21   36 1
    35   22   23 1
    36   22   37 1
    37   22   38 1
    38   23   24 1
    39   23   25 1
    40   23   39 1
    41   24   40 1
    42   24   41 1
    43   24   42 1
    44   25   43 1
    45   25   44 1
    46   25   45 1
@<TRIPOS>MOLECULE
ZINC33743198
   55    58     0     0     0
SMALL
USER_CHARGES
1-(1,3-benzodioxol-5-ylmethyl)-5-butyl-4-(4-fluorophenyl)-2-methyl-pyrrole-3-carboxamide
@<TRIPOS>ATOM
      1 C1         -7.6339    3.6751   -0.0750 C.3       1 <0>        -0.1553
      2 C2         -6.2662    3.9270    0.5628 C.3       1 <0>        -0.1247
      3 C3         -5.6719    2.5990    1.0364 C.3       1 <0>        -0.1159
      4 C4         -4.3042    2.8510    1.6742 C.3       1 <0>        -0.0578
      5 C5         -3.7189    1.5430    2.1407 C.2       1 <0>         0.0500
      6 C6         -3.8943    0.9904    3.3680 C.2       1 <0>        -0.0970
      7 C7         -3.1385   -0.2747    3.3569 C.2       1 <0>        -0.2044
      8 C8         -2.5787   -0.3697    2.1141 C.2       1 <0>         0.0769
      9 N1         -2.9256    0.7187    1.4004 N.pl3     1 <0>        -0.4255
     10 C9         -2.5127    0.9772    0.0188 C.3       1 <0>         0.1404
     11 C10        -1.2192    1.7503    0.0173 C.ar      1 <0>        -0.1052
     12 C11        -1.2417    3.1326    0.0328 C.ar      1 <0>        -0.0891
     13 C12        -0.0578    3.8463    0.0241 C.ar      1 <0>        -0.0986
     14 C13         1.1551    3.1770    0.0081 C.ar      1 <0>         0.0434
     15 C14         1.1779    1.7845    0.0004 C.ar      1 <0>         0.0346
     16 C15        -0.0126    1.0758    0.0080 C.ar      1 <0>        -0.0823
     17 O1          2.4782    1.3695   -0.0147 O.3       1 <0>        -0.3085
     18 C16         3.2432    2.5171   -0.4283 C.3       1 <0>         0.2084
     19 O2          2.4412    3.6344   -0.0021 O.3       1 <0>        -0.3025
     20 C17        -1.7136   -1.5023    1.6244 C.3       1 <0>        -0.0980
     21 C18        -3.0165   -1.2423    4.4585 C.2       1 <0>         0.6022
     22 O3         -3.8201   -2.1495    4.5631 O.2       1 <0>        -0.5492
     23 N2         -2.0143   -1.1235    5.3519 N.am      1 <0>        -0.8707
     24 C19        -4.6863    1.5466    4.4917 C.ar      1 <0>        -0.0159
     25 C20        -4.2928    2.7360    5.1029 C.ar      1 <0>        -0.0806
     26 C21        -5.0363    3.2529    6.1440 C.ar      1 <0>        -0.1537
     27 C22        -6.1652    2.5852    6.5902 C.ar      1 <0>         0.0955
     28 C23        -6.5568    1.3998    5.9896 C.ar      1 <0>        -0.1513
     29 C24        -5.8231    0.8785    4.9437 C.ar      1 <0>        -0.0711
     30 F1         -6.8867    3.0919    7.6139 F         1 <0>        -0.1410
     31 H1         -8.0611    4.6299   -0.4155 H         1 <0>         0.0550
     32 H2         -8.3052    3.2165    0.6660 H         1 <0>         0.0552
     33 H3         -7.5187    2.9978   -0.9341 H         1 <0>         0.0535
     34 H4         -5.5949    4.3856   -0.1782 H         1 <0>         0.0611
     35 H5         -6.3814    4.6043    1.4219 H         1 <0>         0.0640
     36 H6         -6.3432    2.1404    1.7774 H         1 <0>         0.0698
     37 H7         -5.5567    1.9217    0.1773 H         1 <0>         0.0604
     38 H8         -3.6330    3.3096    0.9331 H         1 <0>         0.0729
     39 H9         -4.4194    3.5283    2.5332 H         1 <0>         0.0893
     40 H10        -2.3690    0.0211   -0.5059 H         1 <0>         0.1061
     41 H11        -3.2905    1.5630   -0.4929 H         1 <0>         0.1088
     42 H12        -2.1863    3.6560    0.0456 H         1 <0>         0.1406
     43 H13        -0.0784    4.9261    0.0300 H         1 <0>         0.1402
     44 H14         0.0021   -0.0041    0.0020 H         1 <0>         0.1364
     45 H15         4.2269    2.4987    0.0636 H         1 <0>         0.1366
     46 H16         3.3785    2.4936   -1.5197 H         1 <0>         0.0886
     47 H17        -1.4074   -1.3073    0.5860 H         1 <0>         0.0685
     48 H18        -2.2817   -2.4432    1.6686 H         1 <0>         0.0841
     49 H19        -0.8203   -1.5831    2.2611 H         1 <0>         0.0812
     50 H20        -1.9231   -1.8469    6.1755 H         1 <0>         0.4202
     51 H21        -1.2876   -0.3031    5.2574 H         1 <0>         0.4197
     52 H22        -3.4102    3.2546    4.7588 H         1 <0>         0.1311
     53 H23        -4.7349    4.1769    6.6149 H         1 <0>         0.1350
     54 H24        -7.4376    0.8827    6.3407 H         1 <0>         0.1352
     55 H25        -6.1289   -0.0458    4.4763 H         1 <0>         0.1334
@<TRIPOS>BOND
     1    1    2 1
     2    1   31 1
     3    1   32 1
     4    1   33 1
     5    2    3 1
     6    2   34 1
     7    2   35 1
     8    3    4 1
     9    3   36 1
    10    3   37 1
    11    4    5 1
    12    4   38 1
    13    4   39 1
    14    5    9 1
    15    5    6 2
    16    6    7 1
    17    6   24 1
    18    7    8 2
    19    7   21 1
    20    8    9 1
    21    8   20 1
    22    9   10 1
    23   10   11 1
    24   10   40 1
    25   10   41 1
    26   11   16 ar
    27   11   12 ar
    28   12   13 ar
    29   12   42 1
    30   13   14 ar
    31   13   43 1
    32   14   19 1
    33   14   15 ar
    34   15   16 ar
    35   15   17 1
    36   16   44 1
    37   17   18 1
    38   18   19 1
    39   18   45 1
    40   18   46 1
    41   20   47 1
    42   20   48 1
    43   20   49 1
    44   21   22 2
    45   21   23 am
    46   23   50 1
    47   23   51 1
    48   24   29 ar
    49   24   25 ar
    50   25   26 ar
    51   25   52 1
    52   26   27 ar
    53   26   53 1
    54   27   28 ar
    55   27   30 1
    56   28   29 ar
    57   28   54 1
    58   29   55 1
@<TRIPOS>MOLECULE
ZINC51689643
   59    60     0     0     0
SMALL
USER_CHARGES

@<TRIPOS>ATOM
      1 C1         -0.0139    1.5327   -0.0433 C.3       1 <0>        -0.1535
      2 C2          0.0045    0.0028   -0.0307 C.3       1 <0>        -0.1218
      3 C3         -1.4317   -0.5244   -0.0162 C.3       1 <0>        -0.1330
      4 C4         -1.4133   -2.0542   -0.0036 C.3       1 <0>         0.1168
      5 N1         -2.7886   -2.5590    0.0103 N.am      1 <0>        -0.7308
      6 C5         -3.0189   -3.8869    0.0229 C.2       1 <0>         0.5204
      7 O1         -2.0876   -4.6639    0.0228 O.2       1 <0>        -0.5338
      8 C6         -4.4335   -4.4062    0.0372 C.3       1 <0>        -0.1230
      9 H1         -4.9458   -4.0419    0.9277 H         1 <0>         0.1025
     10 C7         -4.4158   -5.9365    0.0482 C.3       1 <0>        -0.0995
     11 C8         -5.8514   -6.4646    0.0958 C.3       1 <0>        -0.1349
     12 C9         -6.6044   -5.9987   -1.1543 C.3       1 <0>         0.1081
     13 N2         -6.5023   -4.5361   -1.2502 N.am      1 <0>        -0.6268
     14 C10        -5.1707   -3.9163   -1.2131 C.3       1 <0>         0.1418
     15 C11        -7.6095   -3.7769   -1.3699 C.2       1 <0>         0.7130
     16 O2         -7.5200   -2.5644   -1.3524 O.2       1 <0>        -0.5777
     17 N3         -8.8158   -4.3616   -1.5090 N.am      1 <0>        -0.7383
     18 C12       -10.0069   -3.5391   -1.7346 C.3       1 <0>         0.2608
     19 H2         -9.7425   -2.6771   -2.3472 H         1 <0>         0.1085
     20 C13       -11.0552   -4.3569   -2.4440 C.2       1 <0>        -0.1508
     21 C14       -11.8926   -3.9888   -3.4442 C.2       1 <0>        -0.1413
     22 C15       -12.7833   -4.9177   -3.9487 C.2       1 <0>        -0.1552
     23 C16       -12.7930   -6.1693   -3.4283 C.2       1 <0>        -0.1698
     24 S1        -11.5109   -6.0643   -2.1904 S.3       1 <0>         0.0383
     25 C17       -10.5576   -3.0595   -0.3902 C.3       1 <0>        -0.0743
     26 C18        -9.4933   -2.2291    0.3300 C.3       1 <0>        -0.1280
     27 C19       -11.8016   -2.2004   -0.6258 C.3       1 <0>        -0.1420
     28 C20       -10.9288   -4.2693    0.4698 C.3       1 <0>        -0.1486
     29 H3          1.0093    1.9083   -0.0536 H         1 <0>         0.0565
     30 H4         -0.5384    1.8824   -0.9325 H         1 <0>         0.0549
     31 H5         -0.5258    1.8972    0.8474 H         1 <0>         0.0547
     32 H6          0.5163   -0.3617   -0.9213 H         1 <0>         0.0653
     33 H7          0.5289   -0.3469    0.8585 H         1 <0>         0.0651
     34 H8         -1.9436   -0.1599    0.8744 H         1 <0>         0.0696
     35 H9         -1.9562   -0.1746   -0.9054 H         1 <0>         0.0703
     36 H10        -0.9015   -2.4188   -0.8942 H         1 <0>         0.0685
     37 H11        -0.8889   -2.4040    0.8856 H         1 <0>         0.0680
     38 H12        -3.5333   -1.9376    0.0104 H         1 <0>         0.4025
     39 H13        -3.9248   -6.3004   -0.8543 H         1 <0>         0.0742
     40 H14        -3.8706   -6.2871    0.9245 H         1 <0>         0.0764
     41 H15        -5.8374   -7.5540    0.1272 H         1 <0>         0.0835
     42 H16        -6.3509   -6.0809    0.9855 H         1 <0>         0.0696
     43 H17        -6.1607   -6.4547   -2.0393 H         1 <0>         0.0748
     44 H18        -7.6527   -6.2876   -1.0783 H         1 <0>         0.0767
     45 H19        -5.2727   -2.8317   -1.1757 H         1 <0>         0.0998
     46 H20        -4.6102   -4.2021   -2.1032 H         1 <0>         0.0721
     47 H21        -8.8953   -5.3271   -1.4597 H         1 <0>         0.3955
     48 H22       -11.8647   -2.9847   -3.8408 H         1 <0>         0.1352
     49 H23       -13.4616   -4.6502   -4.7454 H         1 <0>         0.1361
     50 H24       -13.4126   -7.0124   -3.6959 H         1 <0>         0.1866
     51 H25        -9.2289   -1.3672   -0.2826 H         1 <0>         0.0651
     52 H26        -9.8857   -1.8875    1.2878 H         1 <0>         0.0467
     53 H27        -8.6071   -2.8411    0.4979 H         1 <0>         0.0563
     54 H28       -12.5598   -2.7920   -1.1389 H         1 <0>         0.0579
     55 H29       -12.1940   -1.8588    0.3320 H         1 <0>         0.0600
     56 H30       -11.5372   -1.3385   -1.2384 H         1 <0>         0.0576
     57 H31       -10.0425   -4.8813    0.6376 H         1 <0>         0.0524
     58 H32       -11.3211   -3.9277    1.4276 H         1 <0>         0.0589
     59 H33       -11.6870   -4.8609   -0.0433 H         1 <0>         0.0621
@<TRIPOS>BOND
     1    1    2 1
     2    1   29 1
     3    1   30 1
     4    1   31 1
     5    2    3 1
     6    2   32 1
     7    2   33 1
     8    3    4 1
     9    3   34 1
    10    3   35 1
    11    4    5 1
    12    4   36 1
    13    4   37 1
    14    5    6 am
    15    5   38 1
    16    6    7 2
    17    6    8 1
    18    8    9 1
    19    8   14 1
    20    8   10 1
    21   10   11 1
    22   10   39 1
    23   10   40 1
    24   11   12 1
    25   11   41 1
    26   11   42 1
    27   12   13 1
    28   12   43 1
    29   12   44 1
    30   13   14 1
    31   13   15 am
    32   14   45 1
    33   14   46 1
    34   15   16 2
    35   15   17 am
    36   17   18 1
    37   17   47 1
    38   18   19 1
    39   18   20 1
    40   18   25 1
    41   20   24 1
    42   20   21 2
    43   21   22 1
    44   21   48 1
    45   22   23 2
    46   22   49 1
    47   23   24 1
    48   23   50 1
    49   25   26 1
    50   25   27 1
    51   25   28 1
    52   26   51 1
    53   26   52 1
    54   26   53 1
    55   27   54 1
    56   27   55 1
    57   27   56 1
    58   28   57 1
    59   28   58 1
    60   28   59 1
@<TRIPOS>MOLECULE
ZINC64468063
   52    53     0     0     0
SMALL
USER_CHARGES

@<TRIPOS>ATOM
      1 C1         -0.0187    1.5258    0.0104 C.3       1 <0>        -0.1527
      2 C2          0.0021   -0.0041    0.0020 C.3       1 <0>        -0.1168
      3 C3          0.7421   -0.5109    1.2415 C.3       1 <0>        -0.0589
      4 C4          0.8719   -2.0337    1.1708 C.3       1 <0>         0.1298
      5 N1          1.7224   -2.3991    0.0353 N.am      1 <0>        -0.7308
      6 C5          1.9791   -3.6965   -0.2243 C.2       1 <0>         0.4984
      7 O1          1.5061   -4.5614    0.4820 O.2       1 <0>        -0.5002
      8 C6          2.8540   -4.0723   -1.3924 C.3       1 <0>         0.1626
      9 C7          2.0339   -4.0159   -2.6828 C.3       1 <0>        -0.0979
     10 C8          2.9358   -4.2714   -3.8628 C.ar      1 <0>        -0.0817
     11 C9          3.5721   -3.2153   -4.4878 C.ar      1 <0>        -0.1172
     12 C10         4.3994   -3.4496   -5.5702 C.ar      1 <0>        -0.1180
     13 C11         4.5907   -4.7401   -6.0273 C.ar      1 <0>        -0.1203
     14 C12         3.9551   -5.7963   -5.4017 C.ar      1 <0>        -0.1171
     15 C13         3.1312   -5.5624   -4.3166 C.ar      1 <0>        -0.1049
     16 N2          3.3687   -5.4304   -1.2000 N.am      1 <0>        -0.6969
     17 C14         2.5132   -6.4657   -1.0875 C.2       1 <0>         0.6521
     18 O2          1.3149   -6.2727   -1.1458 O.2       1 <0>        -0.5416
     19 O3          2.9862   -7.7137   -0.9106 O.3       1 <0>        -0.3695
     20 C15         2.0226   -8.7630   -0.7994 C.3       1 <0>         0.0560
     21 C16        -0.0298   -0.1295    2.4784 C.ar      1 <0>        -0.0740
     22 C17        -1.3218   -0.5881    2.6557 C.ar      1 <0>        -0.1126
     23 C18        -2.0298   -0.2382    3.7902 C.ar      1 <0>        -0.1168
     24 C19        -1.4457    0.5700    4.7476 C.ar      1 <0>        -0.1213
     25 C20        -0.1535    1.0278    4.5708 C.ar      1 <0>        -0.1182
     26 C21         0.5561    0.6744    3.4383 C.ar      1 <0>        -0.1138
     27 H1          1.0039    1.9031    0.0027 H         1 <0>         0.0540
     28 H2         -0.5459    1.8868   -0.8726 H         1 <0>         0.0553
     29 H3         -0.5289    1.8773    0.9072 H         1 <0>         0.0573
     30 H4         -1.0205   -0.3814    0.0098 H         1 <0>         0.0677
     31 H5          0.5123   -0.3556   -0.8948 H         1 <0>         0.0656
     32 H6          1.7350   -0.0630    1.2804 H         1 <0>         0.0858
     33 H7          1.3192   -2.4035    2.0935 H         1 <0>         0.0694
     34 H8         -0.1156   -2.4770    1.0426 H         1 <0>         0.0711
     35 H9          2.1008   -1.7073   -0.5296 H         1 <0>         0.3990
     36 H10         3.6881   -3.3740   -1.4612 H         1 <0>         0.1183
     37 H11         1.2533   -4.7761   -2.6508 H         1 <0>         0.1053
     38 H12         1.5778   -3.0307   -2.7807 H         1 <0>         0.0883
     39 H13         3.4226   -2.2070   -4.1307 H         1 <0>         0.1224
     40 H14         4.8960   -2.6244   -6.0590 H         1 <0>         0.1226
     41 H15         5.2365   -4.9231   -6.8734 H         1 <0>         0.1216
     42 H16         4.1043   -6.8045   -5.7590 H         1 <0>         0.1215
     43 H17         2.6375   -6.3880   -3.8256 H         1 <0>         0.1147
     44 H18         4.3253   -5.5844   -1.1534 H         1 <0>         0.4119
     45 H19         1.3742   -8.5717    0.0556 H         1 <0>         0.0616
     46 H20         1.4227   -8.8033   -1.7085 H         1 <0>         0.0592
     47 H21         2.5359   -9.7145   -0.6603 H         1 <0>         0.1019
     48 H22        -1.7781   -1.2194    1.9077 H         1 <0>         0.1213
     49 H23        -3.0394   -0.5959    3.9284 H         1 <0>         0.1222
     50 H24        -1.9991    0.8439    5.6337 H         1 <0>         0.1214
     51 H25         0.3028    1.6595    5.3186 H         1 <0>         0.1220
     52 H26         1.5670    1.0291    3.3018 H         1 <0>         0.1208
@<TRIPOS>BOND
     1    1    2 1
     2    1   27 1
     3    1   28 1
     4    1   29 1
     5    2    3 1
     6    2   30 1
     7    2   31 1
     8    3    4 1
     9    3   21 1
    10    3   32 1
    11    4    5 1
    12    4   33 1
    13    4   34 1
    14    5    6 am
    15    5   35 1
    16    6    7 2
    17    6    8 1
    18    8    9 1
    19    8   16 1
    20    8   36 1
    21    9   10 1
    22    9   37 1
    23    9   38 1
    24   10   15 ar
    25   10   11 ar
    26   11   12 ar
    27   11   39 1
    28   12   13 ar
    29   12   40 1
    30   13   14 ar
    31   13   41 1
    32   14   15 ar
    33   14   42 1
    34   15   43 1
    35   16   17 am
    36   16   44 1
    37   17   18 2
    38   17   19 1
    39   19   20 1
    40   20   45 1
    41   20   46 1
    42   20   47 1
    43   21   26 ar
    44   21   22 ar
    45   22   23 ar
    46   22   48 1
    47   23   24 ar
    48   23   49 1
    49   24   25 ar
    50   24   50 1
    51   25   26 ar
    52   25   51 1
    53   26   52 1
@<TRIPOS>MOLECULE
ZINC02451181
   55    57     0     0     0
SMALL
USER_CHARGES
2-(ethyl-methyl-propylsulfanyl-BLAHyl)aminobutan-1-ol
@<TRIPOS>ATOM
      1 C1         -2.4657    2.3168  -12.2182 C.3       1 <0>        -0.1464
      2 C2         -1.6917    1.1507  -11.6001 C.3       1 <0>        -0.1121
      3 C3         -1.5720    1.3618  -10.0895 C.3       1 <0>        -0.1103
      4 S1         -0.6563   -0.0177   -9.3583 S.3       1 <0>         0.0131
      5 C4         -0.6678    0.4705   -7.6653 C.ar      1 <0>         0.3582
      6 N1         -0.0721   -0.3123   -6.7777 N.ar      1 <0>        -0.5791
      7 C5         -0.0167   -0.0487   -5.4749 C.ar      1 <0>         0.5094
      8 C6         -0.6477    1.1582   -5.0539 C.ar      1 <0>        -0.2561
      9 C7         -0.7321    1.6795   -3.7020 C.2       1 <0>        -0.0584
     10 C8         -1.3853    2.8547   -3.5410 C.2       1 <0>        -0.2131
     11 S2         -1.9159    3.3200   -5.1673 S.3       1 <0>         0.1421
     12 C9         -1.2642    1.9449   -6.0605 C.ar      1 <0>         0.1504
     13 N2         -1.2760    1.6122   -7.3360 N.ar      1 <0>        -0.5081
     14 C10        -1.5961    3.5806   -2.2492 C.3       1 <0>         0.1449
     15 O1         -0.7286    2.9968   -1.2648 O.3       1 <0>        -0.3538
     16 C11        -0.7892    1.5684   -1.2287 C.3       1 <0>         0.1190
     17 C12        -0.1340    0.9820   -2.4822 C.3       1 <0>        -0.0925
     18 C13        -2.2527    1.1267   -1.1673 C.3       1 <0>        -0.1857
     19 C14        -0.0535    1.0606    0.0130 C.3       1 <0>        -0.1105
     20 C15        -0.7805    1.5436    1.2697 C.3       1 <0>        -0.1533
     21 N3          0.6159   -0.8947   -4.5824 N.pl3     1 <0>        -0.6815
     22 C16         1.1435   -2.1820   -5.0415 C.3       1 <0>         0.1513
     23 H1          0.4882   -2.5895   -5.8114 H         1 <0>         0.1052
     24 C17         1.2117   -3.1549   -3.8627 C.3       1 <0>        -0.1291
     25 C18        -0.2039   -3.4523   -3.3642 C.3       1 <0>        -0.1552
     26 C19         2.5460   -1.9816   -5.6192 C.3       1 <0>         0.0619
     27 O2          3.4325   -1.5581   -4.5815 O.3       1 <0>        -0.5712
     28 H2         -2.5510    2.1665  -13.2944 H         1 <0>         0.0623
     29 H3         -3.4617    2.3657  -11.7781 H         1 <0>         0.0582
     30 H4         -1.9358    3.2490  -12.0225 H         1 <0>         0.0582
     31 H5         -0.6957    1.1018  -12.0402 H         1 <0>         0.0727
     32 H6         -2.2216    0.2185  -11.7959 H         1 <0>         0.0728
     33 H7         -2.5680    1.4107   -9.6494 H         1 <0>         0.0967
     34 H8         -1.0421    2.2940   -9.8937 H         1 <0>         0.0966
     35 H9         -1.3528    4.6356   -2.3756 H         1 <0>         0.1134
     36 H10        -2.6344    3.4774   -1.9338 H         1 <0>         0.0799
     37 H11         0.9417    1.1547   -2.4502 H         1 <0>         0.0926
     38 H12        -0.3340   -0.0882   -2.5355 H         1 <0>         0.0848
     39 H13        -2.7196    1.5395   -0.2730 H         1 <0>         0.0744
     40 H14        -2.7786    1.4876   -2.0512 H         1 <0>         0.0640
     41 H15        -2.3027    0.0384   -1.1338 H         1 <0>         0.0681
     42 H16        -0.0316   -0.0291    0.0022 H         1 <0>         0.0774
     43 H17         0.9667    1.4445    0.0133 H         1 <0>         0.0740
     44 H18        -0.2563    1.1819    2.1543 H         1 <0>         0.0560
     45 H19        -0.8023    2.6334    1.2805 H         1 <0>         0.0636
     46 H20        -1.8006    1.1598    1.2694 H         1 <0>         0.0571
     47 H21         0.7103   -0.6358   -3.6523 H         1 <0>         0.4161
     48 H22         1.6861   -4.0822   -4.1839 H         1 <0>         0.0827
     49 H23         1.7945   -2.7089   -3.0567 H         1 <0>         0.0777
     50 H24        -0.1553   -4.1454   -2.5243 H         1 <0>         0.0609
     51 H25        -0.6782   -2.5250   -3.0430 H         1 <0>         0.0510
     52 H26        -0.7867   -3.8983   -4.1701 H         1 <0>         0.0568
     53 H27         2.9029   -2.9211   -6.0410 H         1 <0>         0.0575
     54 H28         2.5120   -1.2222   -6.4004 H         1 <0>         0.0546
     55 H29         4.3417   -1.4114   -4.8765 H         1 <0>         0.3810
@<TRIPOS>BOND
     1    1    2 1
     2    1   28 1
     3    1   29 1
     4    1   30 1
     5    2    3 1
     6    2   31 1
     7    2   32 1
     8    3    4 1
     9    3   33 1
    10    3   34 1
    11    4    5 1
    12    5   13 ar
    13    5    6 ar
    14    6    7 ar
    15    7    8 ar
    16    7   21 1
    17    8   12 ar
    18    8    9 1
    19    9   17 1
    20    9   10 2
    21   10   11 1
    22   10   14 1
    23   11   12 1
    24   12   13 ar
    25   14   15 1
    26   14   35 1
    27   14   36 1
    28   15   16 1
    29   16   17 1
    30   16   18 1
    31   16   19 1
    32   17   37 1
    33   17   38 1
    34   18   39 1
    35   18   40 1
    36   18   41 1
    37   19   20 1
    38   19   42 1
    39   19   43 1
    40   20   44 1
    41   20   45 1
    42   20   46 1
    43   21   22 1
    44   21   47 1
    45   22   23 1
    46   22   24 1
    47   22   26 1
    48   24   25 1
    49   24   48 1
    50   24   49 1
    51   25   50 1
    52   25   51 1
    53   25   52 1
    54   26   27 1
    55   26   53 1
    56   26   54 1
    57   27   55 1
@<TRIPOS>MOLECULE
ZINC11825738
   54    55     0     0     0
SMALL
USER_CHARGES
2-[2-(2-tert-butyl-4-methoxy-phenoxy)ethoxy]-4-methoxy-benzenecarbothioamide
@<TRIPOS>ATOM
      1 C1          2.1551    5.4438    0.0086 C.3       1 <0>        -0.1466
      2 C2          2.4551    3.9435   -0.0011 C.3       1 <0>        -0.0171
      3 C3          3.2737    3.5790    1.2390 C.3       1 <0>        -0.1397
      4 C4          3.2509    3.5907   -1.2594 C.3       1 <0>        -0.1379
      5 C5          1.1604    3.1723    0.0071 C.ar      1 <0>        -0.0585
      6 C6         -0.0453    3.8467    0.0217 C.ar      1 <0>        -0.1169
      7 C7         -1.2367    3.1371    0.0298 C.ar      1 <0>         0.0907
      8 C8         -1.2179    1.7500    0.0173 C.ar      1 <0>        -0.1745
      9 C9         -0.0126    1.0758    0.0080 C.ar      1 <0>        -0.1696
     10 C10         1.1792    1.7857    0.0004 C.ar      1 <0>         0.1075
     11 O1          2.3659    1.1219   -0.0140 O.3       1 <0>        -0.2890
     12 C11         2.3105   -0.3060   -0.0207 C.3       1 <0>         0.0653
     13 C12         3.7321   -0.8715   -0.0368 C.3       1 <0>         0.0312
     14 O2          4.3965   -0.5247    1.1798 O.3       1 <0>        -0.2142
     15 C13         5.6756   -0.9528    1.3269 C.ar      1 <0>         0.2397
     16 C14         6.2788   -1.6955    0.3266 C.ar      1 <0>        -0.2610
     17 C15         7.5883   -2.1274    0.4762 C.ar      1 <0>         0.2089
     18 C16         8.2982   -1.8273    1.6349 C.ar      1 <0>        -0.2542
     19 C17         7.7081   -1.0948    2.6388 C.ar      1 <0>        -0.0046
     20 C18         6.3899   -0.6492    2.4961 C.ar      1 <0>        -0.1918
     21 C19         5.7550    0.1350    3.5671 C.2       1 <0>         0.3835
     22 S1          4.1416    0.6791    3.3884 S.2       1 <0>        -0.4998
     23 N1          6.4436    0.4250    4.6888 N.pl3     1 <0>        -0.7790
     24 O3          8.1781   -2.8507   -0.5094 O.3       1 <0>        -0.3083
     25 C20         9.5265   -3.2693   -0.2888 C.3       1 <0>         0.0228
     26 O4         -2.4234    3.8009    0.0442 O.3       1 <0>        -0.3190
     27 C21        -3.6111    3.0063    0.0518 C.3       1 <0>         0.0285
     28 H1          1.5882    5.6951    0.9050 H         1 <0>         0.0577
     29 H2          3.0916    6.0016    0.0027 H         1 <0>         0.0575
     30 H3          1.5719    5.7035   -0.8748 H         1 <0>         0.0566
     31 H4          3.4874    2.5101    1.2320 H         1 <0>         0.0907
     32 H5          4.2102    4.1368    1.2330 H         1 <0>         0.0469
     33 H6          2.7068    3.8303    2.1354 H         1 <0>         0.0474
     34 H7          2.6677    3.8504   -2.1429 H         1 <0>         0.0491
     35 H8          4.1873    4.1485   -1.2653 H         1 <0>         0.0537
     36 H9          3.4646    2.5219   -1.2664 H         1 <0>         0.0694
     37 H10        -0.0599    4.9266    0.0266 H         1 <0>         0.1399
     38 H11        -2.1458    1.1974    0.0187 H         1 <0>         0.1274
     39 H12         0.0021   -0.0041    0.0020 H         1 <0>         0.1284
     40 H13         1.7913   -0.6537    0.8724 H         1 <0>         0.0743
     41 H14         1.7747   -0.6447   -0.9074 H         1 <0>         0.0767
     42 H15         3.6904   -1.9566   -0.1314 H         1 <0>         0.0836
     43 H16         4.2797   -0.4539   -0.8817 H         1 <0>         0.0752
     44 H17         5.7308   -1.9353   -0.5726 H         1 <0>         0.1468
     45 H18         9.3159   -2.1710    1.7466 H         1 <0>         0.1385
     46 H19         8.2623   -0.8642    3.5367 H         1 <0>         0.1324
     47 H20         7.3577    0.1167    4.7900 H         1 <0>         0.3965
     48 H21         6.0251    0.9419    5.3948 H         1 <0>         0.4211
     49 H22         9.8764   -3.8369   -1.1510 H         1 <0>         0.1059
     50 H23        10.1604   -2.3937   -0.1486 H         1 <0>         0.0613
     51 H24         9.5712   -3.8965    0.6016 H         1 <0>         0.0611
     52 H25        -3.6359    2.3815   -0.8409 H         1 <0>         0.0532
     53 H26        -3.6189    2.3730    0.9389 H         1 <0>         0.0535
     54 H27        -4.4844    3.6585    0.0633 H         1 <0>         0.0988
@<TRIPOS>BOND
     1    1    2 1
     2    1   28 1
     3    1   29 1
     4    1   30 1
     5    2    3 1
     6    2    4 1
     7    2    5 1
     8    3   31 1
     9    3   32 1
    10    3   33 1
    11    4   34 1
    12    4   35 1
    13    4   36 1
    14    5   10 ar
    15    5    6 ar
    16    6    7 ar
    17    6   37 1
    18    7    8 ar
    19    7   26 1
    20    8    9 ar
    21    8   38 1
    22    9   10 ar
    23    9   39 1
    24   10   11 1
    25   11   12 1
    26   12   13 1
    27   12   40 1
    28   12   41 1
    29   13   14 1
    30   13   42 1
    31   13   43 1
    32   14   15 1
    33   15   20 ar
    34   15   16 ar
    35   16   17 ar
    36   16   44 1
    37   17   18 ar
    38   17   24 1
    39   18   19 ar
    40   18   45 1
    41   19   20 ar
    42   19   46 1
    43   20   21 1
    44   21   22 2
    45   21   23 1
    46   23   47 1
    47   23   48 1
    48   24   25 1
    49   25   49 1
    50   25   50 1
    51   25   51 1
    52   26   27 1
    53   27   52 1
    54   27   53 1
    55   27   54 1
@<TRIPOS>MOLECULE
ZINC22685222
   50    52     0     0     0
SMALL
USER_CHARGES
benzyl N-[(1S)-1-benzyl-2-[(4-fluorophenyl)amino]-2-oxo-ethyl]carbamate
@<TRIPOS>ATOM
      1 C1         -0.0782    4.2745    0.0556 C.ar      1 <0>        -0.1163
      2 C2          1.1299    3.6031    0.0321 C.ar      1 <0>        -0.1145
      3 C3          1.1524    2.2210    0.0177 C.ar      1 <0>        -0.1066
      4 C4         -0.0333    1.5103    0.0267 C.ar      1 <0>        -0.0695
      5 C5         -1.2415    2.1818    0.0449 C.ar      1 <0>        -0.1038
      6 C6         -1.2638    3.5639    0.0646 C.ar      1 <0>        -0.1123
      7 C7         -0.0089    0.0036    0.0106 C.3       1 <0>        -0.0903
      8 C8          0.0195   -0.5214    1.4474 C.3       1 <0>         0.1610
      9 H1         -0.8057   -0.0983    2.0390 H         1 <0>         0.1229
     10 C9         -0.0799   -2.0251    1.4347 C.2       1 <0>         0.5175
     11 O1          0.8095   -2.6957    1.9147 O.2       1 <0>        -0.5125
     12 N1         -1.1571   -2.6247    0.8902 N.am      1 <0>        -0.6786
     13 C10        -1.2059   -4.0206    0.7907 C.ar      1 <0>         0.1363
     14 C11        -1.8269   -4.6187   -0.2977 C.ar      1 <0>        -0.1133
     15 C12        -1.8688   -5.9957   -0.3968 C.ar      1 <0>        -0.1345
     16 C13        -1.3021   -6.7797    0.5940 C.ar      1 <0>         0.0854
     17 C14        -0.6873   -6.1852    1.6831 C.ar      1 <0>        -0.1344
     18 C15        -0.6382   -4.8085    1.7831 C.ar      1 <0>        -0.0934
     19 F1         -1.3486   -8.1264    0.4978 F         1 <0>        -0.1386
     20 N2          1.2739   -0.1203    2.0892 N.am      1 <0>        -0.7127
     21 C16         1.3771    1.0927    2.6675 C.2       1 <0>         0.6531
     22 O2          0.4298    1.8536    2.6565 O.2       1 <0>        -0.5560
     23 O3          2.5299    1.4613    3.2573 O.3       1 <0>        -0.3636
     24 C17         2.5692    2.7818    3.8599 C.3       1 <0>         0.1319
     25 C18         3.9286    3.0168    4.4665 C.ar      1 <0>        -0.1004
     26 C19         4.1677    2.6684    5.7827 C.ar      1 <0>        -0.0935
     27 C20         5.4160    2.8795    6.3377 C.ar      1 <0>        -0.1231
     28 C21         6.4222    3.4484    5.5796 C.ar      1 <0>        -0.1074
     29 C22         6.1814    3.8021    4.2651 C.ar      1 <0>        -0.1236
     30 C23         4.9347    3.5861    3.7085 C.ar      1 <0>        -0.0930
     31 H2         -0.0957    5.3543    0.0665 H         1 <0>         0.1168
     32 H3          2.0563    4.1583    0.0247 H         1 <0>         0.1147
     33 H4          2.0962    1.6964   -0.0010 H         1 <0>         0.1108
     34 H5         -2.1678    1.6267    0.0474 H         1 <0>         0.1166
     35 H6         -2.2077    4.0885    0.0826 H         1 <0>         0.1180
     36 H7         -0.9082   -0.3722   -0.4994 H         1 <0>         0.0899
     37 H8          0.8877   -0.3429   -0.5242 H         1 <0>         0.0858
     38 H9         -1.9980   -2.0175    0.5239 H         1 <0>         0.4401
     39 H10        -2.2729   -4.0076   -1.0684 H         1 <0>         0.1378
     40 H11        -2.3475   -6.4613   -1.2456 H         1 <0>         0.1406
     41 H12        -0.2456   -6.7984    2.4546 H         1 <0>         0.1395
     42 H13        -0.1583   -4.3452    2.6325 H         1 <0>         0.1481
     43 H14         2.1315   -0.8091    2.0991 H         1 <0>         0.4396
     44 H15         2.3750    3.5424    3.0893 H         1 <0>         0.0809
     45 H16         1.8009    2.8500    4.6442 H         1 <0>         0.0794
     46 H17         3.3803    2.2277    6.3762 H         1 <0>         0.1242
     47 H18         5.6040    2.6035    7.3648 H         1 <0>         0.1261
     48 H19         7.3964    3.6168    6.0143 H         1 <0>         0.1251
     49 H20         6.9675    4.2468    3.6729 H         1 <0>         0.1259
     50 H21         4.7465    3.8624    2.6816 H         1 <0>         0.1239
@<TRIPOS>BOND
     1    1    6 ar
     2    1    2 ar
     3    1   31 1
     4    2    3 ar
     5    2   32 1
     6    3    4 ar
     7    3   33 1
     8    4    5 ar
     9    4    7 1
    10    5    6 ar
    11    5   34 1
    12    6   35 1
    13    7    8 1
    14    7   36 1
    15    7   37 1
    16    8    9 1
    17    8   10 1
    18    8   20 1
    19   10   11 2
    20   10   12 am
    21   12   13 1
    22   12   38 1
    23   13   18 ar
    24   13   14 ar
    25   14   15 ar
    26   14   39 1
    27   15   16 ar
    28   15   40 1
    29   16   17 ar
    30   16   19 1
    31   17   18 ar
    32   17   41 1
    33   18   42 1
    34   20   21 am
    35   20   43 1
    36   21   22 2
    37   21   23 1
    38   23   24 1
    39   24   25 1
    40   24   44 1
    41   24   45 1
    42   25   30 ar
    43   25   26 ar
    44   26   27 ar
    45   26   46 1
    46   27   28 ar
    47   27   47 1
    48   28   29 ar
    49   28   48 1
    50   29   30 ar
    51   29   49 1
    52   30   50 1
@<TRIPOS>MOLECULE
ZINC25158404
   52    53     0     0     0
SMALL
USER_CHARGES

@<TRIPOS>ATOM
      1 C1         -0.0187    1.5258    0.0104 C.3       1 <0>        -0.1638
      2 C2          0.0021   -0.0041    0.0020 C.3       1 <0>         0.1437
      3 H1          0.5123   -0.3556   -0.8948 H         1 <0>         0.1193
      4 C3          0.7309   -0.5033    1.2229 C.2       1 <0>         0.5148
      5 O1          0.1587   -1.2128    2.0229 O.2       1 <0>        -0.5223
      6 N1          2.0187   -0.1613    1.4257 N.am      1 <0>        -0.7173
      7 C4          2.7273   -0.6466    2.6126 C.3       1 <0>         0.1918
      8 H2          2.0354   -0.6973    3.4534 H         1 <0>         0.0996
      9 C5          3.8543    0.2968    2.9456 C.ar      1 <0>        -0.0908
     10 C6          4.6133    0.8518    1.9323 C.ar      1 <0>        -0.1161
     11 C7          5.6471    1.7172    2.2377 C.ar      1 <0>        -0.1144
     12 C8          5.9216    2.0279    3.5564 C.ar      1 <0>        -0.1172
     13 C9          5.1620    1.4736    4.5697 C.ar      1 <0>        -0.1148
     14 C10         4.1255    0.6116    4.2640 C.ar      1 <0>        -0.1049
     15 C11         3.2942   -2.0401    2.3339 C.3       1 <0>        -0.0999
     16 C12         4.0342   -2.5470    3.5734 C.3       1 <0>        -0.1470
     17 C13         2.1500   -2.9979    1.9958 C.3       1 <0>        -0.1402
     18 N2         -1.3723   -0.5112    0.0124 N.am      1 <0>        -0.6929
     19 C14        -2.0508   -0.6427   -1.1446 C.2       1 <0>         0.6539
     20 O2         -1.5226   -0.3408   -2.1964 O.2       1 <0>        -0.5703
     21 O3         -3.3139   -1.1087   -1.1351 O.3       1 <0>        -0.3561
     22 C15        -3.9731   -1.2224   -2.3979 C.3       1 <0>         0.1288
     23 C16        -5.3669   -1.7567   -2.1907 C.ar      1 <0>        -0.1016
     24 C17        -5.5935   -3.1203   -2.2044 C.ar      1 <0>        -0.0930
     25 C18        -6.8720   -3.6104   -2.0144 C.ar      1 <0>        -0.1232
     26 C19        -7.9238   -2.7370   -1.8102 C.ar      1 <0>        -0.1070
     27 C20        -7.6971   -1.3734   -1.7957 C.ar      1 <0>        -0.1235
     28 C21        -6.4179   -0.8835   -1.9814 C.ar      1 <0>        -0.0933
     29 H3          1.0039    1.9031    0.0027 H         1 <0>         0.0755
     30 H4         -0.5459    1.8868   -0.8726 H         1 <0>         0.0783
     31 H5         -0.5289    1.8773    0.9072 H         1 <0>         0.0680
     32 H6          2.4764    0.4061    0.7859 H         1 <0>         0.4023
     33 H7          4.3988    0.6091    0.9020 H         1 <0>         0.1198
     34 H8          6.2405    2.1503    1.4461 H         1 <0>         0.1244
     35 H9          6.7297    2.7034    3.7951 H         1 <0>         0.1235
     36 H10         5.3767    1.7161    5.6000 H         1 <0>         0.1249
     37 H11         3.5296    0.1814    5.0555 H         1 <0>         0.1243
     38 H12         3.9860   -1.9894    1.4931 H         1 <0>         0.0722
     39 H13         3.3423   -2.5976    4.4142 H         1 <0>         0.0572
     40 H14         4.4380   -3.5397    3.3749 H         1 <0>         0.0588
     41 H15         4.8493   -1.8646    3.8143 H         1 <0>         0.0591
     42 H16         1.6228   -2.6368    1.1128 H         1 <0>         0.0506
     43 H17         2.5538   -3.9907    1.7973 H         1 <0>         0.0500
     44 H18         1.4581   -3.0486    2.8366 H         1 <0>         0.0648
     45 H19        -1.7940   -0.7522    0.8520 H         1 <0>         0.4176
     46 H20        -4.0265   -0.2411   -2.8694 H         1 <0>         0.0791
     47 H21        -3.4143   -1.9038   -3.0394 H         1 <0>         0.0790
     48 H22        -4.7717   -3.8027   -2.3638 H         1 <0>         0.1250
     49 H23        -7.0491   -4.6757   -2.0257 H         1 <0>         0.1264
     50 H24        -8.9228   -3.1199   -1.6625 H         1 <0>         0.1253
     51 H25        -8.5189   -0.6910   -1.6365 H         1 <0>         0.1264
     52 H26        -6.2401    0.1817   -1.9664 H         1 <0>         0.1249
@<TRIPOS>BOND
     1    1    2 1
     2    1   29 1
     3    1   30 1
     4    1   31 1
     5    2    3 1
     6    2    4 1
     7    2   18 1
     8    4    5 2
     9    4    6 am
    10    6    7 1
    11    6   32 1
    12    7    8 1
    13    7    9 1
    14    7   15 1
    15    9   14 ar
    16    9   10 ar
    17   10   11 ar
    18   10   33 1
    19   11   12 ar
    20   11   34 1
    21   12   13 ar
    22   12   35 1
    23   13   14 ar
    24   13   36 1
    25   14   37 1
    26   15   16 1
    27   15   17 1
    28   15   38 1
    29   16   39 1
    30   16   40 1
    31   16   41 1
    32   17   42 1
    33   17   43 1
    34   17   44 1
    35   18   19 am
    36   18   45 1
    37   19   20 2
    38   19   21 1
    39   21   22 1
    40   22   23 1
    41   22   46 1
    42   22   47 1
    43   23   28 ar
    44   23   24 ar
    45   24   25 ar
    46   24   48 1
    47   25   26 ar
    48   25   49 1
    49   26   27 ar
    50   26   50 1
    51   27   28 ar
    52   27   51 1
    53   28   52 1
@<TRIPOS>MOLECULE
ZINC59403567
   45    45     0     0     0
SMALL
USER_CHARGES

@<TRIPOS>ATOM
      1 C1         -0.0187    1.5258    0.0104 C.3       1 <0>        -0.1540
      2 C2          0.0021   -0.0041    0.0020 C.3       1 <0>         0.0818
      3 O1         -1.3386   -0.4987    0.0122 O.3       1 <0>        -0.3673
      4 C3         -1.4968   -1.8357    0.0065 C.2       1 <0>         0.6446
      5 O2         -0.5233   -2.5627   -0.0067 O.2       1 <0>        -0.5541
      6 N1         -2.7351   -2.3678    0.0155 N.am      1 <0>        -0.7084
      7 C4         -2.9073   -3.8226    0.0093 C.3       1 <0>         0.1487
      8 H1         -2.1197   -4.2792   -0.5902 H         1 <0>         0.1054
      9 C5         -2.8287   -4.3515    1.4428 C.3       1 <0>        -0.1278
     10 C6         -1.4232   -4.1127    1.9982 C.3       1 <0>        -0.0914
     11 C7         -1.3794   -4.5270    3.4704 C.3       1 <0>        -0.1490
     12 C8         -0.4131   -4.9435    1.2042 C.3       1 <0>        -0.1399
     13 C9         -4.2713   -4.1721   -0.5892 C.3       1 <0>         0.1123
     14 N2         -4.3926   -3.5639   -1.9165 N.am      1 <0>        -0.7266
     15 C10        -5.5179   -3.7383   -2.6374 C.2       1 <0>         0.5547
     16 O3         -6.4323   -4.4003   -2.1863 O.2       1 <0>        -0.5036
     17 C11        -5.6401   -3.1250   -3.9758 C.ar      1 <0>        -0.1179
     18 C12        -4.5893   -2.3688   -4.4993 C.ar      1 <0>        -0.0681
     19 C13        -4.7091   -1.7994   -5.7490 C.ar      1 <0>        -0.0947
     20 C14        -5.8688   -1.9755   -6.4861 C.ar      1 <0>        -0.0570
     21 C15        -6.9147   -2.7232   -5.9741 C.ar      1 <0>        -0.0921
     22 C16        -6.8054   -3.3039   -4.7258 C.ar      1 <0>         0.0190
     23 Cl1        -8.1151   -4.2475   -4.0872 Cl        1 <0>        -0.0136
     24 Br1        -6.0234   -1.1903   -8.1994 Br        1 <0>        -0.0237
     25 H2          1.0039    1.9031    0.0027 H         1 <0>         0.0827
     26 H3         -0.5459    1.8868   -0.8726 H         1 <0>         0.0665
     27 H4         -0.5289    1.8773    0.9072 H         1 <0>         0.0666
     28 H5          0.5123   -0.3556   -0.8948 H         1 <0>         0.0686
     29 H6          0.5293   -0.3651    0.8851 H         1 <0>         0.0683
     30 H7         -3.5123   -1.7874    0.0260 H         1 <0>         0.4078
     31 H8         -3.5579   -3.8302    2.0629 H         1 <0>         0.0710
     32 H9         -3.0448   -5.4199    1.4482 H         1 <0>         0.0809
     33 H10        -1.1728   -3.0555    1.9107 H         1 <0>         0.0728
     34 H11        -1.6298   -5.5843    3.5579 H         1 <0>         0.0538
     35 H12        -0.3781   -4.3569    3.8660 H         1 <0>         0.0535
     36 H13        -2.0990   -3.9352    4.0360 H         1 <0>         0.0505
     37 H14         0.5882   -4.7733    1.5999 H         1 <0>         0.0482
     38 H15        -0.6636   -6.0007    1.2917 H         1 <0>         0.0426
     39 H16        -0.4444   -4.6483    0.1554 H         1 <0>         0.0712
     40 H17        -4.3634   -5.2548   -0.6759 H         1 <0>         0.0933
     41 H18        -5.0608   -3.7910    0.0586 H         1 <0>         0.0819
     42 H19        -3.6630   -3.0357   -2.2764 H         1 <0>         0.4007
     43 H20        -3.6845   -2.2300   -3.9260 H         1 <0>         0.1423
     44 H21        -3.8969   -1.2141   -6.1543 H         1 <0>         0.1476
     45 H22        -7.8162   -2.8565   -6.5535 H         1 <0>         0.1521
@<TRIPOS>BOND
     1    1    2 1
     2    1   25 1
     3    1   26 1
     4    1   27 1
     5    2    3 1
     6    2   28 1
     7    2   29 1
     8    3    4 1
     9    4    5 2
    10    4    6 am
    11    6    7 1
    12    6   30 1
    13    7    8 1
    14    7    9 1
    15    7   13 1
    16    9   10 1
    17    9   31 1
    18    9   32 1
    19   10   11 1
    20   10   12 1
    21   10   33 1
    22   11   34 1
    23   11   35 1
    24   11   36 1
    25   12   37 1
    26   12   38 1
    27   12   39 1
    28   13   14 1
    29   13   40 1
    30   13   41 1
    31   14   15 am
    32   14   42 1
    33   15   16 2
    34   15   17 1
    35   17   22 ar
    36   17   18 ar
    37   18   19 ar
    38   18   43 1
    39   19   20 ar
    40   19   44 1
    41   20   21 ar
    42   20   24 1
    43   21   22 ar
    44   21   45 1
    45   22   23 1
@<TRIPOS>MOLECULE
ZINC02948838
   48    50     0     0     0
SMALL
USER_CHARGES
N-butyl-2-[4-(4-fluorophenyl)aminoquinazolin-2-yl]sulfanyl-acetamide
@<TRIPOS>ATOM
      1 C1          5.4286   13.3219   -1.8409 C.3       1 <0>        -0.1534
      2 C2          3.9298   13.0513   -1.6950 C.3       1 <0>        -0.1224
      3 C3          3.6990   11.5516   -1.4987 C.3       1 <0>        -0.1324
      4 C4          2.2002   11.2811   -1.3528 C.3       1 <0>         0.1174
      5 N1          1.9793    9.8451   -1.1648 N.am      1 <0>        -0.7247
      6 C5          0.7271    9.3701   -1.0133 C.2       1 <0>         0.5302
      7 O1         -0.2167   10.1315   -1.0326 O.2       1 <0>        -0.5225
      8 C6          0.4998    7.8929   -0.8199 C.3       1 <0>        -0.1543
      9 S1         -1.2733    7.5729   -0.6473 S.3       1 <0>         0.0973
     10 C7         -1.2496    5.8232   -0.4404 C.ar      1 <0>         0.3306
     11 N2         -0.0857    5.2003   -0.4543 N.ar      1 <0>        -0.5575
     12 C8         -0.0262    3.8695   -0.3001 C.ar      1 <0>         0.2033
     13 C9          1.1920    3.1763   -0.3102 C.ar      1 <0>        -0.1126
     14 C10         1.1976    1.8224   -0.1496 C.ar      1 <0>        -0.0675
     15 C11         0.0110    1.1161    0.0246 C.ar      1 <0>        -0.1326
     16 C12        -1.1921    1.7593    0.0342 C.ar      1 <0>        -0.0676
     17 C13        -1.2324    3.1487   -0.1227 C.ar      1 <0>        -0.1968
     18 C14        -2.4522    3.8706   -0.1164 C.ar      1 <0>         0.4804
     19 N3         -2.4055    5.1850   -0.2767 N.ar      1 <0>        -0.5627
     20 N4         -3.6573    3.2212    0.0519 N.pl3     1 <0>        -0.6340
     21 C15        -4.8393    3.9600    0.1718 C.ar      1 <0>         0.1377
     22 C16        -4.8222    5.2039    0.7891 C.ar      1 <0>        -0.0808
     23 C17        -5.9891    5.9342    0.9009 C.ar      1 <0>        -0.1308
     24 C18        -7.1777    5.4218    0.4086 C.ar      1 <0>         0.0863
     25 C19        -7.1981    4.1790   -0.2018 C.ar      1 <0>        -0.1330
     26 C20        -6.0324    3.4480   -0.3212 C.ar      1 <0>        -0.1163
     27 F1         -8.3189    6.1356    0.5236 F         1 <0>        -0.1382
     28 H1          5.9471   12.9892   -0.9416 H         1 <0>         0.0547
     29 H2          5.8135   12.7790   -2.7041 H         1 <0>         0.0547
     30 H3          5.5930   14.3903   -1.9808 H         1 <0>         0.0570
     31 H4          3.4113   13.3840   -2.5942 H         1 <0>         0.0660
     32 H5          3.5449   13.5943   -0.8318 H         1 <0>         0.0660
     33 H6          4.2175   11.2189   -0.5994 H         1 <0>         0.0702
     34 H7          4.0839   11.0087   -2.3619 H         1 <0>         0.0702
     35 H8          1.6818   11.6138   -2.2520 H         1 <0>         0.0708
     36 H9          1.8153   11.8240   -0.4896 H         1 <0>         0.0709
     37 H10         2.7341    9.2361   -1.1494 H         1 <0>         0.4040
     38 H11         1.0183    7.5602    0.0794 H         1 <0>         0.1259
     39 H12         0.8847    7.3500   -1.6831 H         1 <0>         0.1257
     40 H13         2.1205    3.7114   -0.4440 H         1 <0>         0.1402
     41 H14         2.1371    1.2899   -0.1573 H         1 <0>         0.1352
     42 H15         0.0428    0.0438    0.1493 H         1 <0>         0.1326
     43 H16        -2.1067    1.2002    0.1657 H         1 <0>         0.1265
     44 H17        -3.6853    2.2522    0.0871 H         1 <0>         0.4235
     45 H18        -3.8964    5.6019    1.1775 H         1 <0>         0.1459
     46 H19        -5.9755    6.9037    1.3766 H         1 <0>         0.1411
     47 H20        -8.1261    3.7812   -0.5850 H         1 <0>         0.1406
     48 H21        -6.0487    2.4790   -0.7979 H         1 <0>         0.1355
@<TRIPOS>BOND
     1    1    2 1
     2    1   28 1
     3    1   29 1
     4    1   30 1
     5    2    3 1
     6    2   31 1
     7    2   32 1
     8    3    4 1
     9    3   33 1
    10    3   34 1
    11    4    5 1
    12    4   35 1
    13    4   36 1
    14    5    6 am
    15    5   37 1
    16    6    7 2
    17    6    8 1
    18    8    9 1
    19    8   38 1
    20    8   39 1
    21    9   10 1
    22   10   19 ar
    23   10   11 ar
    24   11   12 ar
    25   12   17 ar
    26   12   13 ar
    27   13   14 ar
    28   13   40 1
    29   14   15 ar
    30   14   41 1
    31   15   16 ar
    32   15   42 1
    33   16   17 ar
    34   16   43 1
    35   17   18 ar
    36   18   19 ar
    37   18   20 1
    38   20   21 1
    39   20   44 1
    40   21   26 ar
    41   21   22 ar
    42   22   23 ar
    43   22   45 1
    44   23   24 ar
    45   23   46 1
    46   24   25 ar
    47   24   27 1
    48   25   26 ar
    49   25   47 1
    50   26   48 1
@<TRIPOS>MOLECULE
ZINC10505075
   46    47     0     0     0
SMALL
USER_CHARGES
3,5-dichloro-N'-[2-(4-sec-butylphenoxy)acetyl]-benzohydrazide
@<TRIPOS>ATOM
      1 C1         -4.3289   17.6877   -1.1857 C.3       1 <0>        -0.1557
      2 C2         -4.0012   16.1942   -1.1314 C.3       1 <0>        -0.1163
      3 C3         -4.6292   15.5795    0.1210 C.3       1 <0>        -0.0501
      4 H1         -5.6985   15.7905    0.1322 H         1 <0>         0.0781
      5 C4         -3.9773   16.1825    1.3669 C.3       1 <0>        -0.1467
      6 C5         -4.4115   14.0883    0.1120 C.ar      1 <0>        -0.1090
      7 C6         -5.4973   13.2323    0.1184 C.ar      1 <0>        -0.0765
      8 C7         -5.3004   11.8650    0.1101 C.ar      1 <0>        -0.1413
      9 C8         -4.0119   11.3510    0.0954 C.ar      1 <0>         0.1212
     10 C9         -2.9241   12.2120    0.0948 C.ar      1 <0>        -0.2066
     11 C10        -3.1264   13.5786    0.0969 C.ar      1 <0>        -0.0737
     12 O1         -3.8156   10.0063    0.0872 O.3       1 <0>        -0.2896
     13 C11        -2.4620    9.5483    0.0721 C.3       1 <0>         0.0545
     14 C12        -2.4416    8.0415    0.0648 C.2       1 <0>         0.5187
     15 O2         -3.4835    7.4208    0.0719 O.2       1 <0>        -0.5085
     16 N1         -1.2654    7.3835    0.0505 N.am      1 <0>        -0.5181
     17 N2         -1.2464    5.9827    0.0437 N.am      1 <0>        -0.5135
     18 C13        -0.0702    5.3248    0.0294 C.2       1 <0>         0.5683
     19 O3          0.9741    5.9468    0.0224 O.2       1 <0>        -0.5220
     20 C14        -0.0502    3.8464    0.0223 C.ar      1 <0>        -0.1037
     21 C15         1.1662    3.1623    0.0074 C.ar      1 <0>        -0.0410
     22 C16         1.1785    1.7815    0.0004 C.ar      1 <0>        -0.0309
     23 C17        -0.0126    1.0758    0.0080 C.ar      1 <0>        -0.0709
     24 C18        -1.2224    1.7489    0.0173 C.ar      1 <0>        -0.0295
     25 C19        -1.2475    3.1295    0.0299 C.ar      1 <0>        -0.0739
     26 Cl1        -2.7108    0.8553    0.0195 Cl        1 <0>        -0.0393
     27 Cl2         2.6905    0.9288   -0.0186 Cl        1 <0>        -0.0382
     28 H2         -5.4102   17.8215   -1.2184 H         1 <0>         0.0544
     29 H3         -3.9285   18.1800   -0.2995 H         1 <0>         0.0574
     30 H4         -3.8815   18.1256   -2.0780 H         1 <0>         0.0545
     31 H5         -2.9199   16.0604   -1.0987 H         1 <0>         0.0626
     32 H6         -4.4015   15.7019   -2.0176 H         1 <0>         0.0629
     33 H7         -2.9080   15.9715    1.3557 H         1 <0>         0.0556
     34 H8         -4.1348   17.2611    1.3735 H         1 <0>         0.0611
     35 H9         -4.4247   15.7446    2.2592 H         1 <0>         0.0556
     36 H10        -6.5002   13.6329    0.1302 H         1 <0>         0.1305
     37 H11        -6.1488   11.1967    0.1147 H         1 <0>         0.1331
     38 H12        -1.9200   11.8143    0.0879 H         1 <0>         0.1279
     39 H13        -2.2799   14.2493    0.0919 H         1 <0>         0.1255
     40 H14        -1.9447    9.9144    0.9589 H         1 <0>         0.1024
     41 H15        -1.9617    9.9228   -0.8209 H         1 <0>         0.1025
     42 H16        -0.4320    7.8799    0.0449 H         1 <0>         0.4362
     43 H17        -2.0797    5.4863    0.0494 H         1 <0>         0.4342
     44 H18         2.0960    3.7118    0.0012 H         1 <0>         0.1585
     45 H19         0.0021   -0.0041    0.0020 H         1 <0>         0.1543
     46 H20        -2.1918    3.6534    0.0413 H         1 <0>         0.1453
@<TRIPOS>BOND
     1    1    2 1
     2    1   28 1
     3    1   29 1
     4    1   30 1
     5    2    3 1
     6    2   31 1
     7    2   32 1
     8    3    4 1
     9    3    5 1
    10    3    6 1
    11    5   33 1
    12    5   34 1
    13    5   35 1
    14    6   11 ar
    15    6    7 ar
    16    7    8 ar
    17    7   36 1
    18    8    9 ar
    19    8   37 1
    20    9   10 ar
    21    9   12 1
    22   10   11 ar
    23   10   38 1
    24   11   39 1
    25   12   13 1
    26   13   14 1
    27   13   40 1
    28   13   41 1
    29   14   15 2
    30   14   16 am
    31   16   17 1
    32   16   42 1
    33   17   18 am
    34   17   43 1
    35   18   19 2
    36   18   20 1
    37   20   25 ar
    38   20   21 ar
    39   21   22 ar
    40   21   44 1
    41   22   23 ar
    42   22   27 1
    43   23   24 ar
    44   23   45 1
    45   24   25 ar
    46   24   26 1
    47   25   46 1
@<TRIPOS>MOLECULE
ZINC30880541
   68    69     0     0     0
SMALL
USER_CHARGES
N-[[(1S,4S,6S)-6-isopropyl-4-[2-(2-methoxyethylamino)-2-oxo-ethyl]-3-methyl-cyclohex-2-en-1-yl]methyl]cyclohexanecarboxamide
@<TRIPOS>ATOM
      1 C1         -1.8506   -0.9792    2.0467 C.3       1 <0>        -0.1249
      2 C2         -2.6780    0.2334    1.7058 C.2       1 <0>        -0.1118
      3 C3         -3.3717    0.7804    2.6519 C.2       1 <0>        -0.1552
      4 C4         -4.2492    1.9831    2.4635 C.3       1 <0>        -0.0646
      5 H1         -5.2926    1.6378    2.4167 H         1 <0>         0.0900
      6 C5         -3.8858    2.7021    1.1625 C.3       1 <0>        -0.0751
      7 H2         -2.9105    3.2003    1.2657 H         1 <0>         0.0732
      8 C6         -3.8313    1.6650    0.0337 C.3       1 <0>        -0.1114
      9 C7         -2.6462    0.7318    0.2907 C.3       1 <0>        -0.0325
     10 H3         -2.7109   -0.1392   -0.3780 H         1 <0>         0.0877
     11 C8         -1.3405    1.4921    0.0501 C.3       1 <0>        -0.1330
     12 C9         -1.2246    1.8416   -1.4113 C.2       1 <0>         0.5150
     13 O1         -2.0416    1.4198   -2.2023 O.2       1 <0>        -0.5415
     14 N1         -0.2163    2.6273   -1.8384 N.am      1 <0>        -0.7384
     15 C10        -0.1071    2.9719   -3.2581 C.3       1 <0>         0.1239
     16 C11         1.1150    3.8670   -3.4731 C.3       1 <0>         0.0464
     17 O2          2.3027    3.1324   -3.1700 O.3       1 <0>        -0.3892
     18 C12         3.5081    3.8809   -3.3392 C.3       1 <0>         0.0274
     19 C13        -4.9459    3.7588    0.8455 C.3       1 <0>        -0.0937
     20 C14        -4.5046    4.5750   -0.3711 C.3       1 <0>        -0.1499
     21 C15        -6.2778    3.0699    0.5416 C.3       1 <0>        -0.1528
     22 C16        -4.0556    2.9415    3.6404 C.3       1 <0>         0.1308
     23 N2         -4.5065    2.2955    4.8755 N.am      1 <0>        -0.7399
     24 C17        -4.4302    2.9557    6.0480 C.2       1 <0>         0.5158
     25 O3         -3.9883    4.0847    6.0806 O.2       1 <0>        -0.5435
     26 C18        -4.8941    2.2912    7.3185 C.3       1 <0>        -0.1046
     27 C19        -6.3755    1.9297    7.1936 C.3       1 <0>        -0.1091
     28 C20        -6.8465    1.2550    8.4835 C.3       1 <0>        -0.1191
     29 C21        -6.6529    2.2134    9.6603 C.3       1 <0>        -0.1237
     30 C22        -5.1714    2.5749    9.7853 C.3       1 <0>        -0.1211
     31 C23        -4.7005    3.2495    8.4954 C.3       1 <0>        -0.1000
     32 H4         -1.9765   -1.2212    3.1123 H         1 <0>         0.0605
     33 H5         -0.7906   -0.7694    1.8410 H         1 <0>         0.0643
     34 H6         -2.1809   -1.8321    1.4355 H         1 <0>         0.0659
     35 H7         -3.3393    0.3634    3.6693 H         1 <0>         0.1059
     36 H8         -4.7679    1.0883    0.0201 H         1 <0>         0.0680
     37 H9         -3.7031    2.1788   -0.9304 H         1 <0>         0.0840
     38 H10        -1.3377    2.4147    0.6491 H         1 <0>         0.0939
     39 H11        -0.4891    0.8611    0.3448 H         1 <0>         0.0946
     40 H12         0.5247    3.0098   -1.1210 H         1 <0>         0.4236
     41 H13         0.0032    2.0521   -3.8512 H         1 <0>         0.0746
     42 H14        -1.0140    3.5069   -3.5764 H         1 <0>         0.0813
     43 H15         1.1466    4.1988   -4.5214 H         1 <0>         0.0667
     44 H16         1.0478    4.7442   -2.8127 H         1 <0>         0.0581
     45 H17         4.3714    3.2475   -3.0872 H         1 <0>         0.0892
     46 H18         3.4910    4.7583   -2.6760 H         1 <0>         0.0434
     47 H19         3.5898    4.2130   -4.3847 H         1 <0>         0.0436
     48 H20        -5.0678    4.4270    1.7108 H         1 <0>         0.0711
     49 H21        -5.2668    5.3347   -0.5990 H         1 <0>         0.0539
     50 H22        -4.3828    3.9068   -1.2363 H         1 <0>         0.0589
     51 H23        -3.5470    5.0703   -0.1526 H         1 <0>         0.0515
     52 H24        -7.0399    3.8296    0.3137 H         1 <0>         0.0525
     53 H25        -6.5950    2.4831    1.4163 H         1 <0>         0.0548
     54 H26        -6.1559    2.4017   -0.3236 H         1 <0>         0.0602
     55 H27        -2.9905    3.2014    3.7302 H         1 <0>         0.0649
     56 H28        -4.6429    3.8557    3.4692 H         1 <0>         0.0687
     57 H29        -4.9074    1.2716    4.8460 H         1 <0>         0.4183
     58 H30        -4.2988    1.3798    7.4764 H         1 <0>         0.0953
     59 H31        -6.9628    2.8439    7.0225 H         1 <0>         0.0681
     60 H32        -6.5147    1.2407    6.3475 H         1 <0>         0.0658
     61 H33        -7.9116    0.9952    8.3936 H         1 <0>         0.0661
     62 H34        -6.2592    0.3408    8.6547 H         1 <0>         0.0646
     63 H35        -7.2402    3.1276    9.4891 H         1 <0>         0.0630
     64 H36        -6.9915    1.7284   10.5877 H         1 <0>         0.0634
     65 H37        -5.0323    3.2639   10.6314 H         1 <0>         0.0659
     66 H38        -4.5841    1.6607    9.9565 H         1 <0>         0.0624
     67 H39        -3.6354    3.5093    8.5853 H         1 <0>         0.0685
     68 H40        -5.2878    4.1637    8.3243 H         1 <0>         0.0695
@<TRIPOS>BOND
     1    1    2 1
     2    1   32 1
     3    1   33 1
     4    1   34 1
     5    2    9 1
     6    2    3 2
     7    3    4 1
     8    3   35 1
     9    4    5 1
    10    4    6 1
    11    4   22 1
    12    6    7 1
    13    6    8 1
    14    6   19 1
    15    8    9 1
    16    8   36 1
    17    8   37 1
    18    9   10 1
    19    9   11 1
    20   11   12 1
    21   11   38 1
    22   11   39 1
    23   12   13 2
    24   12   14 am
    25   14   15 1
    26   14   40 1
    27   15   16 1
    28   15   41 1
    29   15   42 1
    30   16   17 1
    31   16   43 1
    32   16   44 1
    33   17   18 1
    34   18   45 1
    35   18   46 1
    36   18   47 1
    37   19   20 1
    38   19   21 1
    39   19   48 1
    40   20   49 1
    41   20   50 1
    42   20   51 1
    43   21   52 1
    44   21   53 1
    45   21   54 1
    46   22   23 1
    47   22   55 1
    48   22   56 1
    49   23   24 am
    50   23   57 1
    51   24   25 2
    52   24   26 1
    53   26   31 1
    54   26   27 1
    55   26   58 1
    56   27   28 1
    57   27   59 1
    58   27   60 1
    59   28   29 1
    60   28   61 1
    61   28   62 1
    62   29   30 1
    63   29   63 1
    64   29   64 1
    65   30   31 1
    66   30   65 1
    67   30   66 1
    68   31   67 1
    69   31   68 1
@<TRIPOS>MOLECULE
ZINC47334405
   56    58     0     0     0
SMALL
USER_CHARGES

@<TRIPOS>ATOM
      1 C1         -0.0082    1.5030   -0.0054 C.3       1 <0>        -0.1602
      2 C2          0.0085   -0.0269    0.0008 C.3       1 <0>         0.2030
      3 H1          0.5321   -0.3809    0.8889 H         1 <0>         0.1019
      4 C3          0.7163   -0.5266   -1.2323 C.ar      1 <0>        -0.0538
      5 C4          0.0492   -0.5676   -2.4429 C.ar      1 <0>        -0.1509
      6 C5          0.6957   -1.0255   -3.5758 C.ar      1 <0>        -0.0724
      7 C6          2.0104   -1.4437   -3.5010 C.ar      1 <0>        -0.2052
      8 C7          2.6817   -1.4035   -2.2878 C.ar      1 <0>         0.1381
      9 C8          2.0325   -0.9378   -1.1534 C.ar      1 <0>        -0.1362
     10 O1          3.9749   -1.8143   -2.2117 O.3       1 <0>        -0.3116
     11 C9          4.5814   -2.2757   -3.4205 C.3       1 <0>         0.1146
     12 C10         6.0047   -2.6861   -3.1437 C.ar      1 <0>         0.1196
     13 C11         6.5086   -2.5816   -1.8607 C.ar      1 <0>        -0.1495
     14 C12         7.8192   -2.9619   -1.6167 C.ar      1 <0>        -0.0737
     15 C13         8.5774   -3.4351   -2.6769 C.ar      1 <0>        -0.1709
     16 C14         8.0055   -3.5115   -3.9325 C.ar      1 <0>         0.1046
     17 N1          6.7534   -3.1458   -4.1269 N.ar      1 <0>        -0.4808
     18 N2         -1.3673   -0.5302    0.0119 N.am      1 <0>        -0.7354
     19 C15        -2.0275   -0.6614    1.1795 C.2       1 <0>         0.7059
     20 O2         -1.4812   -0.3620    2.2237 O.2       1 <0>        -0.5668
     21 N3         -3.2932   -1.1245    1.1897 N.am      1 <0>        -0.6823
     22 C16        -3.9380   -1.3718    2.4068 C.ar      1 <0>         0.1691
     23 C17        -3.1926   -1.6484    3.5456 C.ar      1 <0>        -0.1283
     24 C18        -3.8319   -1.8915    4.7453 C.ar      1 <0>        -0.1026
     25 C19        -5.2129   -1.8603    4.8134 C.ar      1 <0>        -0.1379
     26 C20        -5.9577   -1.5857    3.6815 C.ar      1 <0>        -0.0946
     27 C21        -5.3241   -1.3355    2.4798 C.ar      1 <0>        -0.1112
     28 C22        -6.1365   -1.0301    1.2478 C.3       1 <0>        -0.0515
     29 C23        -7.1502   -2.1520    1.0143 C.3       1 <0>        -0.1460
     30 C24        -6.8774    0.2946    1.4409 C.3       1 <0>        -0.1430
     31 H2          1.0154    1.8775   -0.0136 H         1 <0>         0.0710
     32 H3         -0.5317    1.8570   -0.8935 H         1 <0>         0.0599
     33 H4         -0.5201    1.8644    0.8864 H         1 <0>         0.0684
     34 H5         -0.9787   -0.2418   -2.5033 H         1 <0>         0.1224
     35 H6          0.1725   -1.0566   -4.5202 H         1 <0>         0.1289
     36 H7          2.5148   -1.8019   -4.3862 H         1 <0>         0.1313
     37 H8          2.5545   -0.9011   -0.2087 H         1 <0>         0.1350
     38 H9          4.0244   -3.1311   -3.8029 H         1 <0>         0.0872
     39 H10         4.5714   -1.4754   -4.1605 H         1 <0>         0.0875
     40 H11         5.8892   -2.2082   -1.0587 H         1 <0>         0.1446
     41 H12         8.2398   -2.8909   -0.6245 H         1 <0>         0.1382
     42 H13         9.6021   -3.7399   -2.5233 H         1 <0>         0.1385
     43 H14         8.5894   -3.8789   -4.7635 H         1 <0>         0.1613
     44 H15        -1.8030   -0.7691   -0.8212 H         1 <0>         0.3972
     45 H16        -3.7571   -1.2863    0.3534 H         1 <0>         0.4052
     46 H17        -2.1142   -1.6736    3.4929 H         1 <0>         0.1468
     47 H18        -3.2528   -2.1067    5.6312 H         1 <0>         0.1240
     48 H19        -5.7105   -2.0511    5.7528 H         1 <0>         0.1217
     49 H20        -7.0360   -1.5627    3.7377 H         1 <0>         0.1241
     50 H21        -5.4741   -0.9536    0.3855 H         1 <0>         0.0671
     51 H22        -6.6224   -3.0958    0.8768 H         1 <0>         0.0560
     52 H23        -7.8125   -2.2285    1.8766 H         1 <0>         0.0601
     53 H24        -7.7378   -1.9311    0.1233 H         1 <0>         0.0588
     54 H25        -6.1552    1.0939    1.6073 H         1 <0>         0.0553
     55 H26        -7.4650    0.5155    0.5499 H         1 <0>         0.0585
     56 H27        -7.5397    0.2181    2.3032 H         1 <0>         0.0593
@<TRIPOS>BOND
     1    1    2 1
     2    1   31 1
     3    1   32 1
     4    1   33 1
     5    2    3 1
     6    2    4 1
     7    2   18 1
     8    4    9 ar
     9    4    5 ar
    10    5    6 ar
    11    5   34 1
    12    6    7 ar
    13    6   35 1
    14    7    8 ar
    15    7   36 1
    16    8    9 ar
    17    8   10 1
    18    9   37 1
    19   10   11 1
    20   11   12 1
    21   11   38 1
    22   11   39 1
    23   12   17 ar
    24   12   13 ar
    25   13   14 ar
    26   13   40 1
    27   14   15 ar
    28   14   41 1
    29   15   16 ar
    30   15   42 1
    31   16   17 ar
    32   16   43 1
    33   18   19 am
    34   18   44 1
    35   19   20 2
    36   19   21 am
    37   21   22 1
    38   21   45 1
    39   22   27 ar
    40   22   23 ar
    41   23   24 ar
    42   23   46 1
    43   24   25 ar
    44   24   47 1
    45   25   26 ar
    46   25   48 1
    47   26   27 ar
    48   26   49 1
    49   27   28 1
    50   28   29 1
    51   28   30 1
    52   28   50 1
    53   29   51 1
    54   29   52 1
    55   29   53 1
    56   30   54 1
    57   30   55 1
    58   30   56 1
@<TRIPOS>MOLECULE
ZINC35429831
   54    56     0     0     0
SMALL
USER_CHARGES

@<TRIPOS>ATOM
      1 C1         -1.1365    1.4139   -0.5727 C.3       1 <0>        -0.1488
      2 C2         -0.8934   -0.0929   -0.4656 C.3       1 <0>        -0.1087
      3 C3         -0.2043   -0.5901   -1.7379 C.3       1 <0>        -0.0841
      4 S1          0.0840   -2.3765   -1.6109 S.3       1 <0>        -0.2644
      5 C4          0.8956   -2.8025   -3.1762 C.3       1 <0>        -0.0827
      6 C5          1.1991   -4.3018   -3.2018 C.3       1 <0>        -0.1155
      7 C6          1.8837   -4.6611   -4.5221 C.3       1 <0>         0.1252
      8 N1          2.1744   -6.0968   -4.5467 N.am      1 <0>        -0.7086
      9 C7          2.7801   -6.6435   -5.6193 C.2       1 <0>         0.5858
     10 O1          3.0851   -5.9458   -6.5658 O.2       1 <0>        -0.4992
     11 C8          3.0748   -8.0990   -5.6442 C.ar      1 <0>         0.3362
     12 N2          2.7270   -8.8310   -4.6045 N.ar      1 <0>        -0.5186
     13 C9          2.9741  -10.1457   -4.5877 C.ar      1 <0>         0.1849
     14 C10         2.6170  -10.9544   -3.4980 C.ar      1 <0>        -0.1007
     15 C11         2.8916  -12.2888   -3.5324 C.ar      1 <0>        -0.0734
     16 C12         3.5218  -12.8641   -4.6327 C.ar      1 <0>        -0.1195
     17 C13         3.8830  -12.1073   -5.7088 C.ar      1 <0>        -0.0758
     18 C14         3.6157  -10.7345   -5.7070 C.ar      1 <0>        -0.1795
     19 C15         3.9667   -9.8988   -6.7963 C.ar      1 <0>         0.4675
     20 N3          3.6736   -8.6093   -6.7172 N.ar      1 <0>        -0.5366
     21 N4          4.5931  -10.4155   -7.9123 N.pl3     1 <0>        -0.6334
     22 C16         5.0399   -9.5589   -8.9224 C.ar      1 <0>         0.1358
     23 C17         5.5305   -8.2997   -8.6009 C.ar      1 <0>        -0.0956
     24 C18         5.9711   -7.4558   -9.6014 C.ar      1 <0>        -0.0975
     25 C19         5.9243   -7.8632  -10.9221 C.ar      1 <0>        -0.0960
     26 C20         5.4360   -9.1159  -11.2457 C.ar      1 <0>        -0.1031
     27 C21         4.9996   -9.9671  -10.2496 C.ar      1 <0>        -0.1389
     28 C22         6.4059   -6.9396  -12.0112 C.3       1 <0>        -0.1146
     29 H1         -0.1831    1.9280   -0.6942 H         1 <0>         0.0565
     30 H2         -1.7722    1.6190   -1.4341 H         1 <0>         0.0565
     31 H3         -1.6275    1.7680    0.3337 H         1 <0>         0.0619
     32 H4         -0.2577   -0.2980    0.3958 H         1 <0>         0.0720
     33 H5         -1.8468   -0.6070   -0.3441 H         1 <0>         0.0721
     34 H6         -0.8400   -0.3849   -2.5993 H         1 <0>         0.0811
     35 H7          0.7491   -0.0759   -1.8594 H         1 <0>         0.0811
     36 H8          0.2368   -2.5509   -4.0073 H         1 <0>         0.0854
     37 H9          1.8259   -2.2418   -3.2674 H         1 <0>         0.0854
     38 H10         1.8580   -4.5534   -2.3707 H         1 <0>         0.0825
     39 H11         0.2688   -4.8625   -3.1106 H         1 <0>         0.0824
     40 H12         1.2249   -4.4095   -5.3532 H         1 <0>         0.0745
     41 H13         2.8140   -4.1005   -4.6133 H         1 <0>         0.0746
     42 H14         1.9308   -6.6539   -3.7909 H         1 <0>         0.4137
     43 H15         2.1280  -10.5221   -2.6376 H         1 <0>         0.1450
     44 H16         2.6165  -12.9099   -2.6927 H         1 <0>         0.1380
     45 H17         3.7278  -13.9242   -4.6342 H         1 <0>         0.1349
     46 H18         4.3719  -12.5650   -6.5561 H         1 <0>         0.1290
     47 H19         4.7233  -11.3731   -7.9956 H         1 <0>         0.4218
     48 H20         5.5670   -7.9808   -7.5697 H         1 <0>         0.1324
     49 H21         6.3523   -6.4766   -9.3521 H         1 <0>         0.1258
     50 H22         5.4001   -9.4306  -12.2782 H         1 <0>         0.1262
     51 H23         4.6232  -10.9472  -10.5025 H         1 <0>         0.1241
     52 H24         7.4684   -7.1079  -12.1868 H         1 <0>         0.0700
     53 H25         5.8503   -7.1379  -12.9278 H         1 <0>         0.0659
     54 H26         6.2473   -5.9051  -11.7068 H         1 <0>         0.0670
@<TRIPOS>BOND
     1    1    2 1
     2    1   29 1
     3    1   30 1
     4    1   31 1
     5    2    3 1
     6    2   32 1
     7    2   33 1
     8    3    4 1
     9    3   34 1
    10    3   35 1
    11    4    5 1
    12    5    6 1
    13    5   36 1
    14    5   37 1
    15    6    7 1
    16    6   38 1
    17    6   39 1
    18    7    8 1
    19    7   40 1
    20    7   41 1
    21    8    9 am
    22    8   42 1
    23    9   10 2
    24    9   11 1
    25   11   20 ar
    26   11   12 ar
    27   12   13 ar
    28   13   18 ar
    29   13   14 ar
    30   14   15 ar
    31   14   43 1
    32   15   16 ar
    33   15   44 1
    34   16   17 ar
    35   16   45 1
    36   17   18 ar
    37   17   46 1
    38   18   19 ar
    39   19   20 ar
    40   19   21 1
    41   21   22 1
    42   21   47 1
    43   22   27 ar
    44   22   23 ar
    45   23   24 ar
    46   23   48 1
    47   24   25 ar
    48   24   49 1
    49   25   26 ar
    50   25   28 1
    51   26   27 ar
    52   26   50 1
    53   27   51 1
    54   28   52 1
    55   28   53 1
    56   28   54 1
@<TRIPOS>MOLECULE
ZINC13173941
   50    51     0     0     0
SMALL
USER_CHARGES
(3R)-3-(4-chlorophenyl)-3-[[2-(2-isopropyl-5-methyl-phenoxy)acetyl]amino]propanoic acid
@<TRIPOS>ATOM
      1 C1          5.8006    1.1946   -7.6876 C.3       1 <0>        -0.1151
      2 C2          5.7823    0.3118   -6.4664 C.ar      1 <0>        -0.0529
      3 C3          6.2730   -0.9790   -6.5396 C.ar      1 <0>        -0.1580
      4 C4          6.2572   -1.7914   -5.4212 C.ar      1 <0>        -0.0746
      5 C5          5.7513   -1.3151   -4.2270 C.ar      1 <0>        -0.1059
      6 C6          5.2590   -0.0206   -4.1508 C.ar      1 <0>         0.1362
      7 C7          5.2707    0.7910   -5.2762 C.ar      1 <0>        -0.2098
      8 O1          4.7608    0.4503   -2.9773 O.3       1 <0>        -0.2834
      9 C8          4.2710    1.7927   -2.9725 C.3       1 <0>         0.0420
     10 C9          3.7625    2.1369   -1.5963 C.2       1 <0>         0.5127
     11 O2          3.8145    1.3138   -0.7072 O.2       1 <0>        -0.5069
     12 N1          3.2499    3.3596   -1.3536 N.am      1 <0>        -0.7223
     13 C10         2.6581    3.6597   -0.0475 C.3       1 <0>         0.2020
     14 H1          3.2524    3.1911    0.7369 H         1 <0>         0.1060
     15 C11         1.2288    3.1160    0.0018 C.3       1 <0>        -0.1642
     16 C12         0.6783    3.2762    1.3955 C.2       1 <0>         0.4689
     17 O3          1.3956    3.6627    2.2877 O.co2     1 <0>        -0.6338
     18 C13         2.6355    5.1518    0.1628 C.ar      1 <0>        -0.0684
     19 C14         2.3215    5.9930   -0.8883 C.ar      1 <0>        -0.1113
     20 C15         2.2951    7.3613   -0.6945 C.ar      1 <0>        -0.1192
     21 C16         2.5940    7.8895    0.5488 C.ar      1 <0>        -0.0363
     22 C17         2.9137    7.0473    1.5989 C.ar      1 <0>        -0.1154
     23 C18         2.9342    5.6790    1.4053 C.ar      1 <0>        -0.0492
     24 Cl1         2.5685    9.6083    0.7909 Cl        1 <0>        -0.0858
     25 C19         5.7349   -2.2011   -3.0081 C.3       1 <0>        -0.0570
     26 C20         4.8938   -3.4467   -3.2943 C.3       1 <0>        -0.1408
     27 C21         7.1653   -2.6200   -2.6627 C.3       1 <0>        -0.1402
     28 H2          4.8708    1.0671   -8.2421 H         1 <0>         0.0714
     29 H3          5.9013    2.2360   -7.3817 H         1 <0>         0.0657
     30 H4          6.6428    0.9193   -8.3224 H         1 <0>         0.0669
     31 H5          6.6689   -1.3531   -7.4722 H         1 <0>         0.1210
     32 H6          6.6404   -2.7994   -5.4811 H         1 <0>         0.1272
     33 H7          4.8835    1.7976   -5.2207 H         1 <0>         0.1272
     34 H8          3.4589    1.8857   -3.6937 H         1 <0>         0.0921
     35 H9          5.0771    2.4746   -3.2431 H         1 <0>         0.0903
     36 H10         3.2729    4.0408   -2.0438 H         1 <0>         0.3951
     37 H11         1.2323    2.0600   -0.2683 H         1 <0>         0.0746
     38 H12         0.6053    3.6687   -0.7009 H         1 <0>         0.0663
     39 H13         2.0926    5.5808   -1.8599 H         1 <0>         0.1245
     40 H14         2.0456    8.0182   -1.5146 H         1 <0>         0.1284
     41 H15         3.1474    7.4591    2.5695 H         1 <0>         0.1310
     42 H16         3.1841    5.0215    2.2249 H         1 <0>         0.1496
     43 H17         5.3031   -1.6562   -2.1686 H         1 <0>         0.0917
     44 H18         5.3255   -3.9917   -4.1338 H         1 <0>         0.0522
     45 H19         4.8819   -4.0876   -2.4126 H         1 <0>         0.0578
     46 H20         3.8747   -3.1483   -3.5403 H         1 <0>         0.0551
     47 H21         7.7645   -1.7326   -2.4588 H         1 <0>         0.0542
     48 H22         7.1534   -3.2608   -1.7810 H         1 <0>         0.0576
     49 H23         7.5971   -3.1649   -3.5022 H         1 <0>         0.0523
     50 O4         -0.6090    2.9896    1.6456 O.co2     1 <0>        -0.7698
@<TRIPOS>BOND
     1    1    2 1
     2    1   28 1
     3    1   29 1
     4    1   30 1
     5    2    7 ar
     6    2    3 ar
     7    3    4 ar
     8    3   31 1
     9    4    5 ar
    10    4   32 1
    11    5    6 ar
    12    5   25 1
    13    6    7 ar
    14    6    8 1
    15    7   33 1
    16    8    9 1
    17    9   10 1
    18    9   34 1
    19    9   35 1
    20   10   11 2
    21   10   12 am
    22   12   13 1
    23   12   36 1
    24   13   14 1
    25   13   15 1
    26   13   18 1
    27   15   16 1
    28   15   37 1
    29   15   38 1
    30   16   17 2
    31   16   50 1
    32   18   23 ar
    33   18   19 ar
    34   19   20 ar
    35   19   39 1
    36   20   21 ar
    37   20   40 1
    38   21   22 ar
    39   21   24 1
    40   22   23 ar
    41   22   41 1
    42   23   42 1
    43   25   26 1
    44   25   27 1
    45   25   43 1
    46   26   44 1
    47   26   45 1
    48   26   46 1
    49   27   47 1
    50   27   48 1
    51   27   49 1
@<TRIPOS>MOLECULE
ZINC13416513
   47    49     0     0     0
SMALL
USER_CHARGES
2-[2-[2-oxo-2-[[(1R)-1-tetralin-6-ylethyl]amino]ethyl]sulfanylthiazol-4-yl]acetic acid
@<TRIPOS>ATOM
      1 C1         -2.1412    0.7998   -3.9680 C.3       1 <0>        -0.1588
      2 C2         -0.9970    1.7576   -3.6299 C.3       1 <0>         0.1858
      3 H1         -1.4009    2.7504   -3.4314 H         1 <0>         0.0994
      4 C3         -0.0405    1.8277   -4.7924 C.ar      1 <0>        -0.0926
      5 C4          0.8978    0.8296   -4.9798 C.ar      1 <0>        -0.1156
      6 C5          1.7715    0.9021   -6.0447 C.ar      1 <0>        -0.1152
      7 C6          1.7168    1.9701   -6.9313 C.ar      1 <0>        -0.0751
      8 C7          0.7793    2.9613   -6.7475 C.ar      1 <0>        -0.0712
      9 C8         -0.1017    2.8849   -5.6762 C.ar      1 <0>        -0.1061
     10 C9          0.6557    4.1423   -7.6743 C.3       1 <0>        -0.0827
     11 C10         1.9257    4.3065   -8.5068 C.3       1 <0>        -0.1208
     12 C11         2.2551    2.9577   -9.1573 C.3       1 <0>        -0.1203
     13 C12         2.7097    1.9932   -8.0637 C.3       1 <0>        -0.0821
     14 N1         -0.2884    1.2723   -2.4431 N.am      1 <0>        -0.7206
     15 C13        -0.7416    1.5850   -1.2129 C.2       1 <0>         0.5417
     16 O1         -1.7359    2.2682   -1.0884 O.2       1 <0>        -0.5144
     17 C14        -0.0127    1.0858    0.0080 C.3       1 <0>        -0.1812
     18 S1         -0.8599    1.6695    1.4972 S.3       1 <0>         0.1226
     19 C15         0.1742    0.9607    2.7352 C.2       1 <0>         0.0344
     20 N2          0.0697    1.0406    4.0487 N.2       1 <0>        -0.4372
     21 C16         0.9378    0.4392    4.8401 C.2       1 <0>         0.1197
     22 C17         1.9523   -0.2579    4.2750 C.2       1 <0>        -0.2206
     23 S2          1.5967   -0.0160    2.5407 S.3       1 <0>        -0.0063
     24 C18         0.8065    0.5306    6.3386 C.3       1 <0>        -0.1010
     25 C19         0.7535    1.9792    6.7508 C.2       1 <0>         0.4681
     26 O2          0.8159    2.8482    5.9136 O.co2     1 <0>        -0.6197
     27 H2         -2.6684    1.1609   -4.8511 H         1 <0>         0.0683
     28 H3         -1.7374   -0.1929   -4.1666 H         1 <0>         0.0593
     29 H4         -2.8330    0.7491   -3.1272 H         1 <0>         0.0680
     30 H5          0.9466   -0.0038   -4.2946 H         1 <0>         0.1209
     31 H6          2.5039    0.1219   -6.1905 H         1 <0>         0.1223
     32 H7         -0.8382    3.6615   -5.5321 H         1 <0>         0.1240
     33 H8         -0.1934    3.9892   -8.3403 H         1 <0>         0.0765
     34 H9          0.4923    5.0453   -7.0861 H         1 <0>         0.0757
     35 H10         1.7631    5.0571   -9.2802 H         1 <0>         0.0680
     36 H11         2.7493    4.6151   -7.8630 H         1 <0>         0.0660
     37 H12         1.3675    2.5615   -9.6504 H         1 <0>         0.0653
     38 H13         3.0535    3.0878   -9.8878 H         1 <0>         0.0674
     39 H14         3.6804    2.3121   -7.6841 H         1 <0>         0.0762
     40 H15         2.8000    0.9912   -8.4831 H         1 <0>         0.0740
     41 H16         0.5068    0.7259   -2.5426 H         1 <0>         0.4022
     42 H17         0.0021   -0.0041    0.0020 H         1 <0>         0.1229
     43 H18         1.0099    1.4631    0.0003 H         1 <0>         0.1236
     44 H19         2.7547   -0.8084    4.7434 H         1 <0>         0.1951
     45 H20        -0.1083    0.0293    6.6545 H         1 <0>         0.0853
     46 H21         1.6648    0.0503    6.8085 H         1 <0>         0.0838
     47 O3          0.6370    2.3040    8.0480 O.co2     1 <0>        -0.7750
@<TRIPOS>BOND
     1    1    2 1
     2    1   27 1
     3    1   28 1
     4    1   29 1
     5    2    3 1
     6    2    4 1
     7    2   14 1
     8    4    9 ar
     9    4    5 ar
    10    5    6 ar
    11    5   30 1
    12    6    7 ar
    13    6   31 1
    14    7   13 1
    15    7    8 ar
    16    8    9 ar
    17    8   10 1
    18    9   32 1
    19   10   11 1
    20   10   33 1
    21   10   34 1
    22   11   12 1
    23   11   35 1
    24   11   36 1
    25   12   13 1
    26   12   37 1
    27   12   38 1
    28   13   39 1
    29   13   40 1
    30   14   15 am
    31   14   41 1
    32   15   16 2
    33   15   17 1
    34   17   18 1
    35   17   42 1
    36   17   43 1
    37   18   19 1
    38   19   23 1
    39   19   20 2
    40   20   21 1
    41   21   22 2
    42   21   24 1
    43   22   23 1
    44   22   44 1
    45   24   25 1
    46   24   45 1
    47   24   46 1
    48   25   26 2
    49   25   47 1
@<TRIPOS>MOLECULE
ZINC13690140
   42    44     0     0     0
SMALL
USER_CHARGES
3-[5-[[2-(4-chlorophenyl)ethylamino]methyl]-2-furyl]benzoic acid
@<TRIPOS>ATOM
      1 C1          2.4231    4.0716   -0.0002 C.ar      1 <0>        -0.1384
      2 C2          3.6326    3.4053   -0.0153 C.ar      1 <0>        -0.0975
      3 C3          3.6645    2.0090   -0.0226 C.ar      1 <0>        -0.0523
      4 C4          2.4721    1.2879   -0.0146 C.ar      1 <0>        -0.0609
      5 C5          1.2550    1.9666    0.0006 C.ar      1 <0>        -0.1138
      6 C6          1.2379    3.3638    0.0025 C.ar      1 <0>        -0.0652
      7 C7         -0.0144    1.2105    0.0087 C.2       1 <0>         0.4893
      8 O1          0.0021   -0.0041    0.0020 O.co2     1 <0>        -0.6278
      9 O2         -1.1900    1.8681    0.0178 O.co2     1 <0>        -0.7525
     10 C8          4.9601    1.2978   -0.0383 C.2       1 <0>         0.0627
     11 C9          6.1891    1.8788   -0.0473 C.2       1 <0>        -0.2115
     12 C10         7.1329    0.8323   -0.0607 C.2       1 <0>        -0.1983
     13 C11         6.4405   -0.3235   -0.0593 C.2       1 <0>        -0.0143
     14 O3          5.1281   -0.0385   -0.0403 O.3       1 <0>        -0.1569
     15 C12         7.0392   -1.7065   -0.0709 C.3       1 <0>         0.1311
     16 N1          7.2468   -2.1618    1.3102 N.3       1 <0>        -0.6677
     17 C13         7.8305   -3.5096    1.3380 C.3       1 <0>         0.0547
     18 C14         8.0315   -3.9485    2.7899 C.3       1 <0>        -0.0811
     19 C15         8.6304   -5.3311    2.8184 C.ar      1 <0>        -0.0733
     20 C16         7.8062   -6.4406    2.8455 C.ar      1 <0>        -0.1013
     21 C17         8.3549   -7.7090    2.8659 C.ar      1 <0>        -0.1077
     22 C18         9.7292   -7.8679    2.8708 C.ar      1 <0>        -0.0398
     23 C19        10.5536   -6.7570    2.8494 C.ar      1 <0>        -0.1097
     24 C20        10.0037   -5.4892    2.8232 C.ar      1 <0>        -0.1051
     25 Cl1        10.4191   -9.4606    2.9031 Cl        1 <0>        -0.0742
     26 H1          2.4042    5.1514    0.0051 H         1 <0>         0.1240
     27 H2          4.5561    3.9653   -0.0211 H         1 <0>         0.1206
     28 H3          2.4911    0.2081   -0.0206 H         1 <0>         0.1324
     29 H4          0.2954    3.8912    0.0101 H         1 <0>         0.1346
     30 H5          6.4012    2.9378   -0.0444 H         1 <0>         0.1481
     31 H6          8.2077    0.9369   -0.0707 H         1 <0>         0.1447
     32 H7          6.3558   -2.3976   -0.5860 H         1 <0>         0.0917
     33 H8          8.0041   -1.6839   -0.5985 H         1 <0>         0.0638
     34 H9          7.9303   -1.4707    1.8253 H         1 <0>         0.3434
     35 H10         7.1526   -4.2132    0.8327 H         1 <0>         0.0775
     36 H11         8.8010   -3.4997    0.8202 H         1 <0>         0.0345
     37 H12         8.7094   -3.2448    3.2952 H         1 <0>         0.0764
     38 H13         7.0610   -3.9585    3.3076 H         1 <0>         0.0882
     39 H14         6.7334   -6.3163    2.8461 H         1 <0>         0.1350
     40 H15         7.7109   -8.5758    2.8826 H         1 <0>         0.1336
     41 H16        11.6265   -6.8804    2.8528 H         1 <0>         0.1321
     42 H17        10.6471   -4.6219    2.8062 H         1 <0>         0.1309
@<TRIPOS>BOND
     1    1    6 ar
     2    1    2 ar
     3    1   26 1
     4    2    3 ar
     5    2   27 1
     6    3    4 ar
     7    3   10 1
     8    4    5 ar
     9    4   28 1
    10    5    6 ar
    11    5    7 1
    12    6   29 1
    13    7    8 2
    14    7    9 1
    15   10   14 1
    16   10   11 2
    17   11   12 1
    18   11   30 1
    19   12   13 2
    20   12   31 1
    21   13   14 1
    22   13   15 1
    23   15   16 1
    24   15   32 1
    25   15   33 1
    26   16   17 1
    27   16   34 1
    28   17   18 1
    29   17   35 1
    30   17   36 1
    31   18   19 1
    32   18   37 1
    33   18   38 1
    34   19   24 ar
    35   19   20 ar
    36   20   21 ar
    37   20   39 1
    38   21   22 ar
    39   21   40 1
    40   22   23 ar
    41   22   25 1
    42   23   24 ar
    43   23   41 1
    44   24   42 1
@<TRIPOS>MOLECULE
ZINC41631480
   44    45     0     0     0
SMALL
USER_CHARGES

@<TRIPOS>ATOM
      1 C1          0.4494    1.5802    0.0675 C.3       1 <0>        -0.1545
      2 C2          0.1358    0.0827    0.0677 C.3       1 <0>        -0.0972
      3 C3          0.5902   -0.5337   -1.2568 C.3       1 <0>        -0.1008
      4 H1          0.1383    0.0116   -2.0854 H         1 <0>         0.1239
      5 C4          0.1614   -1.9774   -1.3123 C.2       1 <0>         0.5398
      6 O1          0.9309   -2.8520   -0.9745 O.2       1 <0>        -0.5011
      7 N1         -1.0771   -2.2967   -1.7373 N.am      1 <0>        -0.6617
      8 C5         -1.4407   -3.6416   -1.8895 C.ar      1 <0>         0.1211
      9 C6         -0.9247   -4.6025   -1.0313 C.ar      1 <0>        -0.0721
     10 C7         -1.2841   -5.9277   -1.1827 C.ar      1 <0>        -0.1445
     11 C8         -2.1589   -6.2990   -2.1900 C.ar      1 <0>         0.1050
     12 C9         -2.6754   -5.3434   -3.0485 C.ar      1 <0>        -0.1730
     13 C10        -2.3233   -4.0145   -2.8970 C.ar      1 <0>         0.1080
     14 F1         -2.8317   -3.0808   -3.7306 F         1 <0>        -0.1228
     15 F2         -2.5085   -7.5959   -2.3355 F         1 <0>        -0.1356
     16 S1          2.3972   -0.4344   -1.3815 S.3       1 <0>         0.0190
     17 C11         2.7377   -0.9259   -3.0390 C.ar      1 <0>         0.3285
     18 N2          1.7276   -1.1471   -3.8682 N.ar      1 <0>        -0.6097
     19 C12         1.9512   -1.5183   -5.1226 C.ar      1 <0>         0.4468
     20 O2          0.9159   -1.7431   -5.9675 O.3       1 <0>        -0.6954
     21 C13         3.2665   -1.6734   -5.5592 C.ar      1 <0>        -0.3079
     22 C14         4.2917   -1.4332   -4.6638 C.ar      1 <0>         0.1863
     23 N3          3.9976   -1.0601   -3.4275 N.ar      1 <0>        -0.5730
     24 C15         5.7284   -1.5888   -5.0912 C.3       1 <0>        -0.0200
     25 S2          6.3397   -0.0100   -5.7428 S.3       1 <0>        -0.2419
     26 C16         8.0577   -0.3623   -6.2064 C.3       1 <0>        -0.0976
     27 C17         8.7011    0.9023   -6.7788 C.3       1 <0>        -0.1335
     28 H2          1.5294    1.7252    0.0387 H         1 <0>         0.0695
     29 H3         -0.0032    2.0461   -0.8078 H         1 <0>         0.0608
     30 H4          0.0457    2.0361    0.9715 H         1 <0>         0.0601
     31 H5          0.6620   -0.3987    0.8920 H         1 <0>         0.0790
     32 H6         -0.9377   -0.0636    0.1872 H         1 <0>         0.0792
     33 H7         -1.7167   -1.5956   -1.9379 H         1 <0>         0.4144
     34 H8         -0.2421   -4.3143   -0.2455 H         1 <0>         0.1613
     35 H9         -0.8821   -6.6752   -0.5148 H         1 <0>         0.1441
     36 H10        -3.3571   -5.6351   -3.8336 H         1 <0>         0.1503
     37 H11         3.4794   -1.9749   -6.5742 H         1 <0>         0.1155
     38 H12         6.3323   -1.8862   -4.2340 H         1 <0>         0.0926
     39 H13         5.7964   -2.3524   -5.8661 H         1 <0>         0.0890
     40 H14         8.6127   -0.6856   -5.3257 H         1 <0>         0.0777
     41 H15         8.0767   -1.1517   -6.9578 H         1 <0>         0.0768
     42 H16         8.1461    1.2256   -7.6595 H         1 <0>         0.0633
     43 H17         8.6821    1.6917   -6.0274 H         1 <0>         0.0637
     44 H18         9.7334    0.6906   -7.0574 H         1 <0>         0.0666
@<TRIPOS>BOND
     1    1    2 1
     2    1   28 1
     3    1   29 1
     4    1   30 1
     5    2    3 1
     6    2   31 1
     7    2   32 1
     8    3    4 1
     9    3    5 1
    10    3   16 1
    11    5    6 2
    12    5    7 am
    13    7    8 1
    14    7   33 1
    15    8   13 ar
    16    8    9 ar
    17    9   10 ar
    18    9   34 1
    19   10   11 ar
    20   10   35 1
    21   11   12 ar
    22   11   15 1
    23   12   13 ar
    24   12   36 1
    25   13   14 1
    26   16   17 1
    27   17   23 ar
    28   17   18 ar
    29   18   19 ar
    30   19   20 1
    31   19   21 ar
    32   21   37 1
    33   21   22 ar
    34   22   23 ar
    35   22   24 1
    36   24   25 1
    37   24   38 1
    38   24   39 1
    39   25   26 1
    40   26   27 1
    41   26   40 1
    42   26   41 1
    43   27   42 1
    44   27   43 1
    45   27   44 1
@<TRIPOS>MOLECULE
ZINC62090530
   48    49     0     0     0
SMALL
USER_CHARGES

@<TRIPOS>ATOM
      1 C1         -0.0184    1.5028    0.0103 C.3       1 <0>        -0.0880
      2 C2          0.0021   -0.0041    0.0020 C.ar      1 <0>        -0.2049
      3 C3          0.0057   -0.6873   -1.2002 C.ar      1 <0>        -0.0786
      4 C4          0.0244   -2.0682   -1.2115 C.ar      1 <0>        -0.1853
      5 C5          0.0396   -2.7708   -0.0132 C.ar      1 <0>         0.2790
      6 C6          0.0359   -2.0813    1.1927 C.ar      1 <0>        -0.2572
      7 C7          0.0229   -0.7003    1.1966 C.ar      1 <0>        -0.0669
      8 N1          0.0581   -4.1674   -0.0209 N.2       1 <0>        -1.0996
      9 S1          0.0762   -5.0031    1.4086 S.o2      1 <0>         2.5277
     10 O1          1.3092   -4.6493    2.0199 O.2       1 <0>        -1.0291
     11 O2         -1.1598   -4.6820    2.0320 O.2       1 <0>        -1.0235
     12 C8          0.0970   -6.7516    0.9262 C.3       1 <0>        -0.5803
     13 C9          0.1147   -7.6268    2.1811 C.3       1 <0>        -0.0971
     14 H1          0.9559   -7.3400    2.8122 H         1 <0>         0.1051
     15 C10        -1.1915   -7.4358    2.9546 C.3       1 <0>        -0.1725
     16 C11         0.2558   -9.0733    1.7828 C.2       1 <0>         0.5270
     17 O3          0.3344   -9.3746    0.6106 O.2       1 <0>        -0.5284
     18 N2          0.2946  -10.0321    2.7291 N.am      1 <0>        -0.7360
     19 C12         0.4318  -11.4384    2.3419 C.3       1 <0>         0.1239
     20 C13         0.4495  -12.3135    3.5968 C.3       1 <0>        -0.0940
     21 C14         0.5906  -13.7600    3.1985 C.ar      1 <0>        -0.0750
     22 C15        -0.5364  -14.5231    2.9566 C.ar      1 <0>        -0.1005
     23 C16        -0.4077  -15.8499    2.5912 C.ar      1 <0>        -0.1084
     24 C17         0.8494  -16.4142    2.4677 C.ar      1 <0>        -0.0371
     25 C18         1.9770  -15.6500    2.7100 C.ar      1 <0>        -0.1083
     26 C19         1.8471  -14.3218    3.0697 C.ar      1 <0>        -0.1004
     27 Cl1         1.0119  -18.0807    2.0094 Cl        1 <0>        -0.0726
     28 H2          1.0042    1.8801    0.0026 H         1 <0>         0.0481
     29 H3         -0.5455    1.8639   -0.8728 H         1 <0>         0.0495
     30 H4         -0.5286    1.8543    0.9071 H         1 <0>         0.0487
     31 H5         -0.0065   -0.1405   -2.1315 H         1 <0>         0.1020
     32 H6          0.0269   -2.6012   -2.1507 H         1 <0>         0.1096
     33 H7          0.0473   -2.6245    2.1261 H         1 <0>         0.0990
     34 H8          0.0244   -0.1635    2.1338 H         1 <0>         0.0986
     35 H9         -0.7930   -6.9770    0.3386 H         1 <0>         0.1266
     36 H10         0.9868   -6.9534    0.3299 H         1 <0>         0.1273
     37 H11        -1.1788   -8.0592    3.8486 H         1 <0>         0.0641
     38 H12        -1.2935   -6.3895    3.2427 H         1 <0>         0.0949
     39 H13        -2.0327   -7.7226    2.3235 H         1 <0>         0.0695
     40 H14         0.2318   -9.7911    3.6666 H         1 <0>         0.4014
     41 H15        -0.4094  -11.7252    1.7109 H         1 <0>         0.0695
     42 H16         1.3623  -11.5744    1.7909 H         1 <0>         0.0696
     43 H17         1.2907  -12.0267    4.2279 H         1 <0>         0.0837
     44 H18        -0.4810  -12.1774    4.1479 H         1 <0>         0.0837
     45 H19        -1.5177  -14.0826    3.0534 H         1 <0>         0.1336
     46 H20        -1.2883  -16.4460    2.4026 H         1 <0>         0.1340
     47 H21         2.9586  -16.0901    2.6140 H         1 <0>         0.1340
     48 H22         2.7274  -13.7239    3.2543 H         1 <0>         0.1338
@<TRIPOS>BOND
     1    1    2 1
     2    1   28 1
     3    1   29 1
     4    1   30 1
     5    2    7 ar
     6    2    3 ar
     7    3    4 ar
     8    3   31 1
     9    4    5 ar
    10    4   32 1
    11    5    6 ar
    12    5    8 1
    13    6    7 ar
    14    6   33 1
    15    7   34 1
    16    8    9 1
    17    9   10 2
    18    9   11 2
    19    9   12 1
    20   12   13 1
    21   12   35 1
    22   12   36 1
    23   13   14 1
    24   13   15 1
    25   13   16 1
    26   15   37 1
    27   15   38 1
    28   15   39 1
    29   16   17 2
    30   16   18 am
    31   18   19 1
    32   18   40 1
    33   19   20 1
    34   19   41 1
    35   19   42 1
    36   20   21 1
    37   20   43 1
    38   20   44 1
    39   21   26 ar
    40   21   22 ar
    41   22   23 ar
    42   22   45 1
    43   23   24 ar
    44   23   46 1
    45   24   25 ar
    46   24   27 1
    47   25   26 ar
    48   25   47 1
    49   26   48 1
@<TRIPOS>MOLECULE
ZINC13172567
   41    42     0     0     0
SMALL
USER_CHARGES
(3R)-3-(2-chlorophenyl)-3-[[(E)-3-[3-(trifluoromethyl)phenyl]prop-2-enoyl]amino]propanoic acid
@<TRIPOS>ATOM
      1 C1         -6.1265    9.8611   -0.7225 C.ar      1 <0>        -0.1263
      2 C2         -6.1929   11.1612   -1.1886 C.ar      1 <0>        -0.1146
      3 C3         -5.0563   11.9469   -1.2094 C.ar      1 <0>        -0.1237
      4 C4         -3.8517   11.4325   -0.7633 C.ar      1 <0>        -0.0306
      5 C5         -3.7859   10.1319   -0.2967 C.ar      1 <0>        -0.0698
      6 C6         -4.9225    9.3452   -0.2813 C.ar      1 <0>        -0.0512
      7 C7         -2.4743    9.5708    0.1888 C.3       1 <0>         0.2046
      8 H1         -1.6604    9.9791   -0.4104 H         1 <0>         0.0924
      9 C8         -2.2683    9.9521    1.6561 C.3       1 <0>        -0.1709
     10 C9         -3.3070    9.2646    2.5044 C.2       1 <0>         0.4711
     11 O1         -4.1750    8.6065    1.9814 O.co2     1 <0>        -0.6381
     12 N1         -2.4903    8.1115    0.0611 N.am      1 <0>        -0.6920
     13 C10        -1.3311    7.4243    0.0374 C.2       1 <0>         0.5413
     14 O2         -0.2703    8.0207    0.0294 O.2       1 <0>        -0.5530
     15 C11        -1.3480    5.9602    0.0212 C.2       1 <0>        -0.1756
     16 C12        -0.1885    5.2730   -0.0025 C.2       1 <0>        -0.0477
     17 C13        -0.2055    3.8011   -0.0188 C.ar      1 <0>        -0.0585
     18 C14        -1.4226    3.1121   -0.0092 C.ar      1 <0>        -0.0745
     19 C15        -1.4303    1.7336   -0.0294 C.ar      1 <0>        -0.1178
     20 C16        -0.2376    1.0314   -0.0480 C.ar      1 <0>        -0.0715
     21 C17         0.9707    1.7059   -0.0580 C.ar      1 <0>        -0.1850
     22 C18         0.9949    3.0847   -0.0434 C.ar      1 <0>        -0.0516
     23 C19         2.2634    0.9317   -0.0846 C.3       1 <0>         0.5096
     24 F1          1.9857   -0.4394   -0.0951 F         1 <0>        -0.1781
     25 F2          2.9860    1.2700   -1.2337 F         1 <0>        -0.1763
     26 F3          3.0184    1.2459    1.0505 F         1 <0>        -0.1753
     27 Cl1        -2.4233   12.4188   -0.7897 Cl        1 <0>        -0.0759
     28 H2         -7.0149    9.2472   -0.7071 H         1 <0>         0.1243
     29 H3         -7.1332   11.5625   -1.5367 H         1 <0>         0.1246
     30 H4         -5.1081   12.9621   -1.5741 H         1 <0>         0.1275
     31 H5         -4.8704    8.3283    0.0788 H         1 <0>         0.1497
     32 H6         -1.2739    9.6411    1.9762 H         1 <0>         0.0757
     33 H7         -2.3648   11.0321    1.7678 H         1 <0>         0.0754
     34 H8         -3.3351    7.6397   -0.0064 H         1 <0>         0.4062
     35 H9         -2.2894    5.4310    0.0283 H         1 <0>         0.1299
     36 H10         0.7529    5.8022   -0.0096 H         1 <0>         0.1404
     37 H11        -2.3540    3.6585    0.0101 H         1 <0>         0.1402
     38 H12        -2.3694    1.2001   -0.0262 H         1 <0>         0.1386
     39 H13        -0.2500   -0.0485   -0.0592 H         1 <0>         0.1385
     40 H14         1.9386    3.6097   -0.0512 H         1 <0>         0.1390
     41 O3         -3.2679    9.3833    3.8408 O.co2     1 <0>        -0.7708
@<TRIPOS>BOND
     1    1    6 ar
     2    1    2 ar
     3    1   28 1
     4    2    3 ar
     5    2   29 1
     6    3    4 ar
     7    3   30 1
     8    4    5 ar
     9    4   27 1
    10    5    6 ar
    11    5    7 1
    12    6   31 1
    13    7    8 1
    14    7    9 1
    15    7   12 1
    16    9   10 1
    17    9   32 1
    18    9   33 1
    19   10   11 2
    20   10   41 1
    21   12   13 am
    22   12   34 1
    23   13   14 2
    24   13   15 1
    25   15   16 2
    26   15   35 1
    27   16   17 1
    28   16   36 1
    29   17   22 ar
    30   17   18 ar
    31   18   19 ar
    32   18   37 1
    33   19   20 ar
    34   19   38 1
    35   20   21 ar
    36   20   39 1
    37   21   22 ar
    38   21   23 1
    39   22   40 1
    40   23   24 1
    41   23   25 1
    42   23   26 1
@<TRIPOS>MOLECULE
ZINC13415728
   46    47     0     0     0
SMALL
USER_CHARGES
2-[2-[(1R)-2-[(4-tert-butylphenyl)amino]-1-methyl-2-oxo-ethyl]sulfanylthiazol-4-yl]acetic acid
@<TRIPOS>ATOM
      1 C1          2.2269   -4.6316   -1.7227 C.3       1 <0>        -0.1526
      2 C2          2.4252   -4.2361   -0.2581 C.3       1 <0>        -0.1400
      3 H1          1.6204   -4.6576    0.3442 H         1 <0>         0.1199
      4 C3          2.4096   -2.7341   -0.1369 C.2       1 <0>         0.5425
      5 O1          3.4521   -2.1143   -0.1440 O.2       1 <0>        -0.4938
      6 N1          1.2373   -2.0795   -0.0204 N.am      1 <0>        -0.6673
      7 C4          1.2143   -0.6805   -0.0190 C.ar      1 <0>         0.1430
      8 C5          2.1370    0.0314   -0.7742 C.ar      1 <0>        -0.1164
      9 C6          2.1113    1.4123   -0.7710 C.ar      1 <0>        -0.0946
     10 C7          1.1682    2.0860   -0.0167 C.ar      1 <0>        -0.0852
     11 C8          0.2481    1.3801    0.7364 C.ar      1 <0>        -0.1024
     12 C9          0.2684   -0.0009    0.7374 C.ar      1 <0>        -0.1416
     13 C10         1.1432    3.5928   -0.0155 C.3       1 <0>        -0.0283
     14 C11         0.9098    4.1002   -1.4400 C.3       1 <0>        -0.1388
     15 C12         0.0133    4.0834    0.8921 C.3       1 <0>        -0.1445
     16 C13         2.4809    4.1247    0.5026 C.3       1 <0>        -0.1400
     17 S1          4.0148   -4.8724    0.3288 S.3       1 <0>         0.1161
     18 C14         3.7093   -6.6044    0.2221 C.2       1 <0>         0.0353
     19 N2          4.5127   -7.6083    0.5210 N.2       1 <0>        -0.4352
     20 C15         4.1207   -8.8607    0.3817 C.2       1 <0>         0.1191
     21 C16         2.8688   -9.0987   -0.0773 C.2       1 <0>        -0.2246
     22 S2          2.2715   -7.4289   -0.2959 S.3       1 <0>         0.0045
     23 C17         5.0448  -10.0003    0.7259 C.3       1 <0>        -0.1014
     24 C18         6.3334   -9.8514   -0.0413 C.2       1 <0>         0.4681
     25 O2          6.4856   -8.9160   -0.7907 O.co2     1 <0>        -0.6197
     26 H2          1.2696   -4.2485   -2.0762 H         1 <0>         0.0754
     27 H3          3.0317   -4.2102   -2.3251 H         1 <0>         0.0826
     28 H4          2.2381   -5.7181   -1.8104 H         1 <0>         0.0854
     29 H5          0.4094   -2.5783    0.0623 H         1 <0>         0.4130
     30 H6          2.8736   -0.4942   -1.3637 H         1 <0>         0.1353
     31 H7          2.8314    1.9666   -1.3546 H         1 <0>         0.1244
     32 H8         -0.4870    1.9092    1.3246 H         1 <0>         0.1297
     33 H9         -0.4507   -0.5517    1.3255 H         1 <0>         0.1252
     34 H10        -0.0432    3.7212   -1.8091 H         1 <0>         0.0560
     35 H11         0.8917    5.1900   -1.4391 H         1 <0>         0.0574
     36 H12         1.7148    3.7507   -2.0865 H         1 <0>         0.0574
     37 H13         0.1795    3.7219    1.9069 H         1 <0>         0.0588
     38 H14        -0.0048    5.1732    0.8930 H         1 <0>         0.0574
     39 H15        -0.9397    3.7044    0.5230 H         1 <0>         0.0583
     40 H16         3.2858    3.7753   -0.1440 H         1 <0>         0.0579
     41 H17         2.4628    5.2146    0.5035 H         1 <0>         0.0575
     42 H18         2.6471    3.7633    1.5174 H         1 <0>         0.0569
     43 H19         2.3682  -10.0385   -0.2573 H         1 <0>         0.1950
     44 H20         5.2551   -9.9872    1.7954 H         1 <0>         0.0851
     45 H21         4.5710  -10.9453    0.4604 H         1 <0>         0.0840
     46 O3          7.3119  -10.7581    0.1079 O.co2     1 <0>        -0.7747
@<TRIPOS>BOND
     1    1    2 1
     2    1   26 1
     3    1   27 1
     4    1   28 1
     5    2    3 1
     6    2    4 1
     7    2   17 1
     8    4    5 2
     9    4    6 am
    10    6    7 1
    11    6   29 1
    12    7   12 ar
    13    7    8 ar
    14    8    9 ar
    15    8   30 1
    16    9   10 ar
    17    9   31 1
    18   10   11 ar
    19   10   13 1
    20   11   12 ar
    21   11   32 1
    22   12   33 1
    23   13   14 1
    24   13   15 1
    25   13   16 1
    26   14   34 1
    27   14   35 1
    28   14   36 1
    29   15   37 1
    30   15   38 1
    31   15   39 1
    32   16   40 1
    33   16   41 1
    34   16   42 1
    35   17   18 1
    36   18   22 1
    37   18   19 2
    38   19   20 1
    39   20   21 2
    40   20   23 1
    41   21   22 1
    42   21   43 1
    43   23   24 1
    44   23   44 1
    45   23   45 1
    46   24   25 2
    47   24   46 1
@<TRIPOS>MOLECULE
ZINC04861719
   47    48     0     0     0
SMALL
USER_CHARGES

@<TRIPOS>ATOM
      1 C1         -0.0187    1.5258    0.0104 C.3       1 <0>        -0.1525
      2 C2          0.0021   -0.0041    0.0020 C.3       1 <0>        -0.1163
      3 C3          0.7421   -0.5109    1.2415 C.3       1 <0>        -0.0738
      4 C4          0.7625   -2.0177    1.2333 C.2       1 <0>         0.1958
      5 C5          1.8390   -2.6816    0.7194 C.2       1 <0>        -0.2948
      6 C6          1.8356   -4.0875    0.7224 C.2       1 <0>         0.5301
      7 N1          0.7658   -4.7330    1.2343 N.am      1 <0>        -0.6144
      8 C7         -0.2801   -4.0176    1.7335 C.2       1 <0>         0.3572
      9 N2         -0.2663   -2.6985    1.7317 N.2       1 <0>        -0.5453
     10 S1         -1.6722   -4.8683    2.3990 S.3       1 <0>         0.0788
     11 C8         -2.7861   -3.5389    2.9303 C.3       1 <0>        -0.1425
     12 C9         -4.0339   -4.1373    3.5267 C.2       1 <0>         0.5316
     13 O1         -4.1595   -5.3421    3.5874 O.2       1 <0>        -0.5217
     14 N3         -5.0105   -3.3338    3.9927 N.am      1 <0>        -0.7195
     15 C10        -6.2235   -3.9155    4.5725 C.3       1 <0>         0.1227
     16 C11        -7.1631   -2.7942    5.0206 C.3       1 <0>        -0.0991
     17 C12        -6.5097   -2.0050    6.1569 C.3       1 <0>        -0.1160
     18 C13        -7.4492   -0.8836    6.6050 C.3       1 <0>        -0.1205
     19 C14        -8.7667   -1.4876    7.0953 C.3       1 <0>        -0.1224
     20 C15        -9.4200   -2.2768    5.9591 C.3       1 <0>        -0.1193
     21 C16        -8.4805   -3.3982    5.5110 C.3       1 <0>        -0.1125
     22 O2          2.7811   -4.7124    0.2707 O.2       1 <0>        -0.5331
     23 H1          1.0039    1.9031    0.0027 H         1 <0>         0.0570
     24 H2         -0.5459    1.8868   -0.8726 H         1 <0>         0.0580
     25 H3         -0.5289    1.8773    0.9072 H         1 <0>         0.0566
     26 H4         -1.0205   -0.3814    0.0098 H         1 <0>         0.0667
     27 H5          0.5123   -0.3556   -0.8948 H         1 <0>         0.0650
     28 H6          1.7647   -0.1336    1.2338 H         1 <0>         0.0879
     29 H7          0.2319   -0.1594    2.1383 H         1 <0>         0.0880
     30 H8          2.6794   -2.1358    0.3168 H         1 <0>         0.1570
     31 H9         -2.2859   -2.9225    3.6773 H         1 <0>         0.1323
     32 H10        -3.0531   -2.9235    2.0711 H         1 <0>         0.1321
     33 H11        -4.9101   -2.3702    3.9442 H         1 <0>         0.4046
     34 H12        -6.7238   -4.5319    3.8255 H         1 <0>         0.0726
     35 H13        -5.9565   -4.5309    5.4317 H         1 <0>         0.0727
     36 H14        -7.3593   -2.1274    4.1810 H         1 <0>         0.0787
     37 H15        -6.3134   -2.6718    6.9965 H         1 <0>         0.0659
     38 H16        -5.5711   -1.5747    5.8075 H         1 <0>         0.0608
     39 H17        -6.9837   -0.3213    7.4145 H         1 <0>         0.0630
     40 H18        -7.6454   -0.2168    5.7654 H         1 <0>         0.0621
     41 H19        -8.5704   -2.1544    7.9349 H         1 <0>         0.0623
     42 H20        -9.4360   -0.6887    7.4146 H         1 <0>         0.0620
     43 H21       -10.3586   -2.7071    6.3085 H         1 <0>         0.0645
     44 H22        -9.6163   -1.6100    5.1195 H         1 <0>         0.0624
     45 H23        -8.9460   -3.9604    4.7015 H         1 <0>         0.0664
     46 H24        -8.2843   -4.0650    6.3506 H         1 <0>         0.0668
     47 H25         0.7421   -5.7026    1.2463 H         1 <0>         0.4216
@<TRIPOS>BOND
     1    1    2 1
     2    1   23 1
     3    1   24 1
     4    1   25 1
     5    2    3 1
     6    2   26 1
     7    2   27 1
     8    3   28 1
     9    3   29 1
    10    3    4 1
    11    4    5 2
    12    4    9 1
    13    5    6 1
    14    5   30 1
    15    6    7 am
    16    6   22 2
    17    7    8 1
    18    7   47 1
    19    8   10 1
    20    8    9 2
    21   10   11 1
    22   11   12 1
    23   11   31 1
    24   11   32 1
    25   12   13 2
    26   12   14 am
    27   14   15 1
    28   14   33 1
    29   15   16 1
    30   15   34 1
    31   15   35 1
    32   16   21 1
    33   16   17 1
    34   16   36 1
    35   17   18 1
    36   17   37 1
    37   17   38 1
    38   18   19 1
    39   18   39 1
    40   18   40 1
    41   19   20 1
    42   19   41 1
    43   19   42 1
    44   20   21 1
    45   20   43 1
    46   20   44 1
    47   21   45 1
    48   21   46 1
@<TRIPOS>MOLECULE
ZINC49147668
   41    41     0     0     0
SMALL
USER_CHARGES

@<TRIPOS>ATOM
      1 C1         -2.4347   -1.0169    0.3998 C.3       1 <0>        -0.1627
      2 C2         -1.9667    0.1674    1.2479 C.3       1 <0>         0.2482
      3 H1         -1.2955    0.7929    0.6594 H         1 <0>         0.1106
      4 C3         -3.1608    0.9792    1.6793 C.2       1 <0>        -0.1450
      5 C4         -3.6448    2.1305    1.1534 C.2       1 <0>        -0.1438
      6 C5         -4.7675    2.7064    1.7188 C.2       1 <0>        -0.1362
      7 C6         -5.3508    2.1011    2.7836 C.2       1 <0>        -0.1250
      8 S1         -4.3088    0.6694    3.0108 S.3       1 <0>         0.1128
      9 Cl1        -6.7511    2.5886    3.6864 Cl        1 <0>         0.0147
     10 N1         -1.2599   -0.3285    2.4314 N.am      1 <0>        -0.7448
     11 C7          0.0522   -0.6273    2.3568 C.2       1 <0>         0.7151
     12 O1          0.6275   -0.5758    1.2869 O.2       1 <0>        -0.5961
     13 N2          0.7266   -0.9831    3.4681 N.am      1 <0>        -0.6174
     14 C8          0.0128   -1.1478    4.7369 C.3       1 <0>         0.1024
     15 C9         -0.4621   -2.5960    4.8706 C.3       1 <0>        -0.1152
     16 C10        -1.2075   -2.7680    6.1956 C.3       1 <0>        -0.1826
     17 C11        -1.6752   -4.1946    6.3273 C.2       1 <0>         0.4892
     18 O2         -1.4347   -4.9991    5.4434 O.co2     1 <0>        -0.6968
     19 O3         -2.2942   -4.5441    7.3179 O.co2     1 <0>        -0.7069
     20 C12         2.1734   -1.2051    3.4075 C.3       1 <0>         0.1503
     21 C13         2.8694   -0.3170    4.4408 C.3       1 <0>        -0.1618
     22 C14         2.4771   -2.6738    3.7100 C.3       1 <0>        -0.1670
     23 H2         -3.1059   -1.6425    0.9883 H         1 <0>         0.0628
     24 H3         -2.9605   -0.6480   -0.4808 H         1 <0>         0.0685
     25 H4         -1.5710   -1.6042    0.0878 H         1 <0>         0.0762
     26 H5         -3.1605    2.5916    0.3053 H         1 <0>         0.1435
     27 H6         -5.1735    3.6239    1.3193 H         1 <0>         0.1420
     28 H7         -1.7363   -0.4418    3.2687 H         1 <0>         0.3992
     29 H8          0.6810   -0.9067    5.5636 H         1 <0>         0.0811
     30 H9         -0.8481   -0.4796    4.7588 H         1 <0>         0.0646
     31 H10        -1.1302   -2.8371    4.0438 H         1 <0>         0.0602
     32 H11         0.3989   -3.2642    4.8487 H         1 <0>         0.0741
     33 H12        -0.5393   -2.5269    7.0224 H         1 <0>         0.0572
     34 H13        -2.0684   -2.0999    6.2175 H         1 <0>         0.0558
     35 H14         2.5376   -0.9567    2.4106 H         1 <0>         0.0986
     36 H15         2.5052   -0.5655    5.4376 H         1 <0>         0.0610
     37 H16         3.9459   -0.4823    4.3956 H         1 <0>         0.0669
     38 H17         2.6531    0.7293    4.2252 H         1 <0>         0.0557
     39 H18         1.9812   -3.3065    2.9739 H         1 <0>         0.0613
     40 H19         3.5535   -2.8390    3.6649 H         1 <0>         0.0618
     41 H20         2.1129   -2.9223    4.7069 H         1 <0>         0.0674
@<TRIPOS>BOND
     1    1    2 1
     2    1   23 1
     3    1   24 1
     4    1   25 1
     5    2    3 1
     6    2    4 1
     7    2   10 1
     8    4    8 1
     9    4    5 2
    10    5    6 1
    11    5   26 1
    12    6    7 2
    13    6   27 1
    14    7    8 1
    15    7    9 1
    16   10   11 am
    17   10   28 1
    18   11   12 2
    19   11   13 am
    20   13   14 1
    21   13   20 1
    22   14   15 1
    23   14   29 1
    24   14   30 1
    25   15   16 1
    26   15   31 1
    27   15   32 1
    28   16   17 1
    29   16   33 1
    30   16   34 1
    31   17   18 2
    32   17   19 1
    33   20   21 1
    34   20   22 1
    35   20   35 1
    36   21   36 1
    37   21   37 1
    38   21   38 1
    39   22   39 1
    40   22   40 1
    41   22   41 1
@<TRIPOS>MOLECULE
ZINC64567242
   44    46     0     0     0
SMALL
USER_CHARGES

@<TRIPOS>ATOM
      1 C1         -0.0167    1.3780    0.0096 C.ar      1 <0>        -0.1330
      2 C2          1.1706    2.0866    0.0021 C.ar      1 <0>        -0.0864
      3 C3          2.3773    1.4137   -0.0131 C.ar      1 <0>        -0.1579
      4 C4          2.3974    0.0291   -0.0207 C.ar      1 <0>         0.1152
      5 C5          1.2080   -0.6793   -0.0132 C.ar      1 <0>        -0.1384
      6 C6          0.0021   -0.0041    0.0020 C.ar      1 <0>        -0.0718
      7 C7          1.2281   -2.1862   -0.0220 C.3       1 <0>         0.1642
      8 N1          1.4877   -2.6790    1.3330 N.am      1 <0>        -0.7373
      9 C8          1.5505   -4.0048    1.5674 C.2       1 <0>         0.5203
     10 O1          1.3921   -4.7898    0.6565 O.2       1 <0>        -0.5050
     11 C9          1.8175   -4.5117    2.9612 C.3       1 <0>        -0.0782
     12 C10         1.8376   -6.0186    2.9524 C.ar      1 <0>         0.1889
     13 C11         2.9305   -6.7058    3.4472 C.ar      1 <0>        -0.3277
     14 C12         2.9083   -8.0995    3.4202 C.ar      1 <0>         0.4448
     15 O2          3.9582   -8.8126    3.8953 O.3       1 <0>        -0.7039
     16 N2          1.8444   -8.7182    2.9230 N.ar      1 <0>        -0.6126
     17 C13         0.8156   -8.0243    2.4578 C.ar      1 <0>         0.3328
     18 N3          0.8065   -6.6989    2.4756 N.ar      1 <0>        -0.5596
     19 S1         -0.5772   -8.8847    1.8064 S.3       1 <0>        -0.0437
     20 C14        -0.1363  -10.6349    1.9883 C.3       1 <0>        -0.0613
     21 C15        -1.2578  -11.4928    1.4617 C.ar      1 <0>        -0.0723
     22 C16        -2.2755  -11.8943    2.3068 C.ar      1 <0>        -0.0731
     23 C17        -3.3048  -12.6807    1.8250 C.ar      1 <0>        -0.1537
     24 C18        -3.3164  -13.0664    0.4952 C.ar      1 <0>         0.0931
     25 C19        -2.2966  -12.6636   -0.3502 C.ar      1 <0>        -0.1533
     26 C20        -1.2711  -11.8729    0.1326 C.ar      1 <0>        -0.0725
     27 F1         -4.3218  -13.8355    0.0232 F         1 <0>        -0.1437
     28 F2          3.5766   -0.6299   -0.0360 F         1 <0>        -0.1317
     29 H1         -0.9594    1.9048    0.0260 H         1 <0>         0.1311
     30 H2          1.1547    3.1665    0.0077 H         1 <0>         0.1326
     31 H3          3.3046    1.9675   -0.0193 H         1 <0>         0.1361
     32 H4         -0.9259   -0.5565    0.0083 H         1 <0>         0.1361
     33 H5          0.2640   -2.5604   -0.3662 H         1 <0>         0.0807
     34 H6          2.0136   -2.5351   -0.6922 H         1 <0>         0.0763
     35 H7          1.6144   -2.0512    2.0615 H         1 <0>         0.3975
     36 H8          2.7817   -4.1375    3.3054 H         1 <0>         0.1026
     37 H9          1.0320   -4.1628    3.6314 H         1 <0>         0.1045
     38 H10         3.7825   -6.1748    3.8453 H         1 <0>         0.1134
     39 H11         0.7738  -10.8408    1.4249 H         1 <0>         0.1015
     40 H12         0.0296  -10.8602    3.0417 H         1 <0>         0.1014
     41 H13        -2.2661  -11.5936    3.3441 H         1 <0>         0.1368
     42 H14        -4.0996  -12.9945    2.4855 H         1 <0>         0.1351
     43 H15        -2.3045  -12.9641   -1.3876 H         1 <0>         0.1352
     44 H16        -0.4779  -11.5549   -0.5277 H         1 <0>         0.1371
@<TRIPOS>BOND
     1    1    6 ar
     2    1    2 ar
     3    1   29 1
     4    2    3 ar
     5    2   30 1
     6    3    4 ar
     7    3   31 1
     8    4    5 ar
     9    4   28 1
    10    5    6 ar
    11    5    7 1
    12    6   32 1
    13    7    8 1
    14    7   33 1
    15    7   34 1
    16    8    9 am
    17    8   35 1
    18    9   10 2
    19    9   11 1
    20   11   12 1
    21   11   36 1
    22   11   37 1
    23   12   18 ar
    24   12   13 ar
    25   13   14 ar
    26   13   38 1
    27   14   15 1
    28   14   16 ar
    29   16   17 ar
    30   17   18 ar
    31   17   19 1
    32   19   20 1
    33   20   21 1
    34   20   39 1
    35   20   40 1
    36   21   26 ar
    37   21   22 ar
    38   22   23 ar
    39   22   41 1
    40   23   24 ar
    41   23   42 1
    42   24   25 ar
    43   24   27 1
    44   25   26 ar
    45   25   43 1
    46   26   44 1
@<TRIPOS>MOLECULE
ZINC13021313
   50    52     0     0     0
SMALL
USER_CHARGES
2-[2-(benzhydrylamino)-2-oxo-ethyl]sulfanyl-4,6-dimethyl-pyridine-3-carboxylic acid
@<TRIPOS>ATOM
      1 C1          2.0899   -3.2009   -3.6363 C.3       1 <0>        -0.1135
      2 C2          1.7951   -1.8092   -3.1391 C.ar      1 <0>        -0.0165
      3 C3          2.1922   -0.6990   -3.8628 C.ar      1 <0>        -0.1819
      4 C4          1.9072    0.5667   -3.3816 C.ar      1 <0>         0.1180
      5 N1          1.2581    0.7367   -2.2467 N.ar      1 <0>        -0.4997
      6 C5          0.8594   -0.2901   -1.5105 C.ar      1 <0>         0.1099
      7 C6          1.1121   -1.6079   -1.9336 C.ar      1 <0>        -0.1170
      8 C7          0.6670   -2.7541   -1.1234 C.2       1 <0>         0.5010
      9 O1         -0.4332   -3.2368   -1.3063 O.co2     1 <0>        -0.6173
     10 S1          0.0021   -0.0041    0.0020 S.3       1 <0>         0.0510
     11 C8         -0.0225    1.8057    0.0120 C.3       1 <0>        -0.1560
     12 C9         -0.7278    2.2917    1.2519 C.2       1 <0>         0.5348
     13 O2         -1.1704    1.4931    2.0502 O.2       1 <0>        -0.5095
     14 N2         -0.8669    3.6138    1.4736 N.am      1 <0>        -0.7234
     15 C10        -1.5526    4.0863    2.6789 C.3       1 <0>         0.2287
     16 C11        -0.5741    4.1440    3.8235 C.ar      1 <0>        -0.0888
     17 C12         0.7164    4.5900    3.6078 C.ar      1 <0>        -0.1016
     18 C13         1.6126    4.6475    4.6588 C.ar      1 <0>        -0.1208
     19 C14         1.2212    4.2494    5.9234 C.ar      1 <0>        -0.1190
     20 C15        -0.0676    3.7980    6.1379 C.ar      1 <0>        -0.1186
     21 C16        -0.9653    3.7455    5.0881 C.ar      1 <0>        -0.1004
     22 C17        -2.1160    5.4617    2.4298 C.ar      1 <0>        -0.0834
     23 C18        -1.3815    6.3907    1.7169 C.ar      1 <0>        -0.1102
     24 C19        -1.9003    7.6507    1.4843 C.ar      1 <0>        -0.1157
     25 C20        -3.1493    7.9850    1.9732 C.ar      1 <0>        -0.1191
     26 C21        -3.8814    7.0578    2.6911 C.ar      1 <0>        -0.1158
     27 C22        -3.3648    5.7961    2.9192 C.ar      1 <0>        -0.1036
     28 C23         2.3414    1.7736   -4.1728 C.3       1 <0>        -0.0921
     29 H1          1.2662   -3.5454   -4.2616 H         1 <0>         0.0742
     30 H2          3.0100   -3.1906   -4.2206 H         1 <0>         0.0657
     31 H3          2.2067   -3.8732   -2.7864 H         1 <0>         0.0811
     32 H4          2.7207   -0.8194   -4.7970 H         1 <0>         0.1292
     33 H5          1.0001    2.1830    0.0042 H         1 <0>         0.1167
     34 H6         -0.5497    2.1668   -0.8711 H         1 <0>         0.1169
     35 H7         -0.5130    4.2526    0.8351 H         1 <0>         0.4008
     36 H8         -2.3631    3.4013    2.9279 H         1 <0>         0.1066
     37 H9          1.0234    4.8971    2.6189 H         1 <0>         0.1166
     38 H10         2.6196    4.9998    4.4910 H         1 <0>         0.1209
     39 H11         1.9225    4.2908    6.7437 H         1 <0>         0.1204
     40 H12        -0.3733    3.4867    7.1259 H         1 <0>         0.1223
     41 H13        -1.9723    3.3928    5.2557 H         1 <0>         0.1222
     42 H14        -0.4040    6.1309    1.3383 H         1 <0>         0.1204
     43 H15        -1.3282    8.3753    0.9237 H         1 <0>         0.1235
     44 H16        -3.5531    8.9707    1.7947 H         1 <0>         0.1219
     45 H17        -4.8571    7.3191    3.0735 H         1 <0>         0.1241
     46 H18        -3.9367    5.0717    3.4801 H         1 <0>         0.1253
     47 H19         1.5514    2.0552   -4.8689 H         1 <0>         0.0711
     48 H20         2.5388    2.6022   -3.4926 H         1 <0>         0.0700
     49 H21         3.2483    1.5363   -4.7291 H         1 <0>         0.0699
     50 O3          1.4798   -3.2678   -0.1790 O.co2     1 <0>        -0.7391
@<TRIPOS>BOND
     1    1    2 1
     2    1   29 1
     3    1   30 1
     4    1   31 1
     5    2    7 ar
     6    2    3 ar
     7    3    4 ar
     8    3   32 1
     9    4    5 ar
    10    4   28 1
    11    5    6 ar
    12    6    7 ar
    13    6   10 1
    14    7    8 1
    15    8    9 2
    16    8   50 1
    17   10   11 1
    18   11   12 1
    19   11   33 1
    20   11   34 1
    21   12   13 2
    22   12   14 am
    23   14   15 1
    24   14   35 1
    25   15   16 1
    26   15   22 1
    27   15   36 1
    28   16   21 ar
    29   16   17 ar
    30   17   18 ar
    31   17   37 1
    32   18   19 ar
    33   18   38 1
    34   19   20 ar
    35   19   39 1
    36   20   21 ar
    37   20   40 1
    38   21   41 1
    39   22   27 ar
    40   22   23 ar
    41   23   24 ar
    42   23   42 1
    43   24   25 ar
    44   24   43 1
    45   25   26 ar
    46   25   44 1
    47   26   27 ar
    48   26   45 1
    49   27   46 1
    50   28   47 1
    51   28   48 1
    52   28   49 1
@<TRIPOS>MOLECULE
ZINC13343254
   47    48     0     0     0
SMALL
USER_CHARGES
(3S)-3-(4-chlorophenyl)-3-[(4-sec-butylphenyl)sulfonylamino]propanoic acid
@<TRIPOS>ATOM
      1 C1          0.6762   -4.3772    5.7445 C.3       1 <0>        -0.1526
      2 C2         -0.1408   -3.4862    4.8068 C.3       1 <0>        -0.1155
      3 C3         -1.4513   -3.0919    5.4910 C.3       1 <0>        -0.0581
      4 H1         -1.2335   -2.6267    6.4524 H         1 <0>         0.0790
      5 C4         -2.3075   -4.3407    5.7109 C.3       1 <0>        -0.1462
      6 C5         -2.1996   -2.1168    4.6191 C.ar      1 <0>        -0.0239
      7 C6         -2.4994   -0.8538    5.0943 C.ar      1 <0>        -0.1407
      8 C7         -3.1859    0.0406    4.2945 C.ar      1 <0>        -0.0144
      9 C8         -3.5718   -0.3277    3.0192 C.ar      1 <0>        -0.6740
     10 C9         -3.2762   -1.5923    2.5458 C.ar      1 <0>        -0.0123
     11 C10        -2.5859   -2.4853    3.3440 C.ar      1 <0>        -0.1343
     12 S1         -4.4468    0.8124    1.9998 S.o2      1 <0>         2.6906
     13 O1         -5.0818    1.7349    2.8745 O.2       1 <0>        -0.9722
     14 O2         -5.1706    0.0382    1.0532 O.2       1 <0>        -0.9303
     15 N1         -3.3179    1.6711    1.1449 N.pl3     1 <0>        -1.0893
     16 C11        -2.4420    0.9840    0.1926 C.3       1 <0>         0.2080
     17 H2         -2.9267    0.0712   -0.1536 H         1 <0>         0.1049
     18 C12        -2.1683    1.9006   -1.0015 C.3       1 <0>        -0.1576
     19 C13        -3.4501    2.1361   -1.7581 C.2       1 <0>         0.4561
     20 O3         -4.4549    1.5433   -1.4437 O.co2     1 <0>        -0.6155
     21 C14        -1.1403    0.6365    0.8679 C.ar      1 <0>        -0.0858
     22 C15        -0.5358   -0.5813    0.6179 C.ar      1 <0>        -0.0985
     23 C16         0.6611   -0.8981    1.2322 C.ar      1 <0>        -0.1066
     24 C17         1.2514    0.0016    2.1018 C.ar      1 <0>        -0.0379
     25 C18         0.6430    1.2180    2.3560 C.ar      1 <0>        -0.1099
     26 C19        -0.5539    1.5336    1.7411 C.ar      1 <0>        -0.0902
     27 Cl1         2.7550   -0.3953    2.8733 Cl        1 <0>        -0.0826
     28 H3          1.6098   -4.6580    5.2571 H         1 <0>         0.0544
     29 H4          0.8954   -3.8331    6.6633 H         1 <0>         0.0528
     30 H5          0.1056   -5.2751    5.9814 H         1 <0>         0.0561
     31 H6         -0.3600   -4.0302    3.8880 H         1 <0>         0.0651
     32 H7          0.4299   -2.5882    4.5699 H         1 <0>         0.0663
     33 H8         -3.2411   -4.0598    6.1984 H         1 <0>         0.0559
     34 H9         -2.5253   -4.8059    4.7495 H         1 <0>         0.0587
     35 H10        -1.7662   -5.0459    6.3415 H         1 <0>         0.0616
     36 H11        -2.1977   -0.5660    6.0905 H         1 <0>         0.1256
     37 H12        -3.4205    1.0272    4.6659 H         1 <0>         0.1355
     38 H13        -3.5815   -1.8815    1.5511 H         1 <0>         0.1385
     39 H14        -2.3514   -3.4719    2.9726 H         1 <0>         0.1269
     40 H15        -3.2367    2.6289    1.2747 H         1 <0>         0.4147
     41 H16        -1.7760    2.8534   -0.6458 H         1 <0>         0.0723
     42 H17        -1.4384    1.4305   -1.6606 H         1 <0>         0.0788
     43 H18        -0.9967   -1.2836   -0.0610 H         1 <0>         0.1333
     44 H19         1.1357   -1.8476    1.0331 H         1 <0>         0.1294
     45 H20         1.1032    1.9205    3.0350 H         1 <0>         0.1288
     46 H21        -1.0289    2.4830    1.9395 H         1 <0>         0.1313
     47 O4         -3.4755    3.0045   -2.7813 O.co2     1 <0>        -0.7757
@<TRIPOS>BOND
     1    1    2 1
     2    1   28 1
     3    1   29 1
     4    1   30 1
     5    2    3 1
     6    2   31 1
     7    2   32 1
     8    3    4 1
     9    3    5 1
    10    3    6 1
    11    5   33 1
    12    5   34 1
    13    5   35 1
    14    6   11 ar
    15    6    7 ar
    16    7    8 ar
    17    7   36 1
    18    8    9 ar
    19    8   37 1
    20    9   10 ar
    21    9   12 1
    22   10   11 ar
    23   10   38 1
    24   11   39 1
    25   12   13 2
    26   12   14 2
    27   12   15 1
    28   15   16 1
    29   15   40 1
    30   16   17 1
    31   16   18 1
    32   16   21 1
    33   18   19 1
    34   18   41 1
    35   18   42 1
    36   19   20 2
    37   19   47 1
    38   21   26 ar
    39   21   22 ar
    40   22   23 ar
    41   22   43 1
    42   23   24 ar
    43   23   44 1
    44   24   25 ar
    45   24   27 1
    46   25   26 ar
    47   25   45 1
    48   26   46 1
@<TRIPOS>MOLECULE
ZINC23242136
   38    39     0     0     0
SMALL
USER_CHARGES
N-allyl-2-(2-benzylsulfanyl-6-oxo-1H-pyrimidin-4-yl)acetamide
@<TRIPOS>ATOM
      1 C1         11.3423   -0.6844    5.4606 C.2       1 <0>        -0.1765
      2 C2         10.0819   -0.8104    5.1264 C.2       1 <0>        -0.1716
      3 C3          9.6512   -0.5637    3.7035 C.3       1 <0>         0.1486
      4 N1          8.9355   -1.7382    3.1993 N.am      1 <0>        -0.7475
      5 C4          8.4541   -1.7449    1.9404 C.2       1 <0>         0.5209
      6 O1          8.6134   -0.7786    1.2250 O.2       1 <0>        -0.5237
      7 C5          7.7179   -2.9532    1.4217 C.3       1 <0>        -0.0821
      8 C6          7.2872   -2.7064   -0.0013 C.ar      1 <0>         0.1949
      9 C7          8.0662   -3.1422   -1.0341 C.ar      1 <0>        -0.3579
     10 C8          7.6414   -2.9051   -2.3531 C.ar      1 <0>         0.4965
     11 O2          8.3135   -3.2806   -3.2997 O.3       1 <0>        -0.6233
     12 N2          6.4758   -2.2535   -2.5525 N.ar      1 <0>        -0.6354
     13 C9          5.7400   -1.8420   -1.4830 C.ar      1 <0>         0.3371
     14 N3          6.1485   -2.0642   -0.2485 N.ar      1 <0>        -0.6170
     15 S1          4.2166   -0.9985   -1.7526 S.3       1 <0>        -0.0407
     16 C10         3.7090   -0.7111   -0.0392 C.3       1 <0>        -0.0625
     17 C11         2.3909    0.0194   -0.0217 C.ar      1 <0>        -0.0649
     18 C12         1.2061   -0.6926   -0.0099 C.ar      1 <0>        -0.1039
     19 C13        -0.0028   -0.0224    0.0057 C.ar      1 <0>        -0.1221
     20 C14        -0.0269    1.3597    0.0096 C.ar      1 <0>        -0.1241
     21 C15         1.1579    2.0717   -0.0015 C.ar      1 <0>        -0.1216
     22 C16         2.3669    1.4015   -0.0177 C.ar      1 <0>        -0.1036
     23 H1         11.6567   -0.8645    6.4992 H         1 <0>         0.1032
     24 H2         12.0863   -0.3983    4.7025 H         1 <0>         0.1014
     25 H3          9.3379   -1.0965    5.8845 H         1 <0>         0.1164
     26 H4          8.9879    0.3131    3.6680 H         1 <0>         0.0708
     27 H5         10.5376   -0.3783    3.0790 H         1 <0>         0.0663
     28 H6          8.7909   -2.6147    3.8480 H         1 <0>         0.4176
     29 H7          8.3812   -3.8299    1.4572 H         1 <0>         0.0992
     30 H8          6.8315   -3.1385    2.0462 H         1 <0>         0.1018
     31 H9          8.9235   -3.6214   -0.8461 H         1 <0>         0.0982
     32 H10         4.4710   -0.1048    0.4723 H         1 <0>         0.0987
     33 H11         3.6003   -1.6759    0.4778 H         1 <0>         0.0980
     34 H12         1.2250   -1.7723   -0.0134 H         1 <0>         0.1245
     35 H13        -0.9285   -0.5786    0.0145 H         1 <0>         0.1206
     36 H14        -0.9715    1.8834    0.0170 H         1 <0>         0.1184
     37 H15         1.1391    3.1515    0.0012 H         1 <0>         0.1206
     38 H16         3.2925    1.9578   -0.0272 H         1 <0>         0.1246
@<TRIPOS>BOND
     1    1    2 2
     2    1   23 1
     3    1   24 1
     4    2    3 1
     5    2   25 1
     6    3    4 1
     7    3   26 1
     8    3   27 1
     9    4    5 am
    10    4   28 1
    11    5    6 2
    12    5    7 1
    13    7   29 1
    14    7   30 1
    15    7    8 1
    16    8    9 ar
    17    8   14 ar
    18    9   10 ar
    19    9   31 1
    20   10   12 ar
    21   10   11 1
    22   12   13 ar
    23   13   14 ar
    24   13   15 1
    25   15   16 1
    26   16   17 1
    27   16   32 1
    28   16   33 1
    29   17   22 ar
    30   17   18 ar
    31   18   19 ar
    32   18   34 1
    33   19   20 ar
    34   19   35 1
    35   20   21 ar
    36   20   36 1
    37   21   22 ar
    38   21   37 1
    39   22   38 1
@<TRIPOS>MOLECULE
ZINC12861551
   44    46     0     0     0
SMALL
USER_CHARGES

@<TRIPOS>ATOM
      1 C1         -0.0187    1.5258    0.0104 C.3       1 <0>        -0.1476
      2 C2          0.0021   -0.0041    0.0020 C.3       1 <0>        -0.1209
      3 C3          0.7421   -0.5109    1.2415 C.3       1 <0>        -0.1195
      4 C4          0.7628   -2.0407    1.2331 C.3       1 <0>         0.1876
      5 H1          1.1931   -2.3931    0.2957 H         1 <0>         0.0970
      6 C5          1.5956   -2.5382    2.3864 C.ar      1 <0>        -0.0851
      7 C6          1.0542   -2.5922    3.6572 C.ar      1 <0>        -0.1136
      8 C7          1.8180   -3.0485    4.7151 C.ar      1 <0>        -0.1167
      9 C8          3.1232   -3.4512    4.5022 C.ar      1 <0>        -0.1221
     10 C9          3.6643   -3.3980    3.2313 C.ar      1 <0>        -0.1163
     11 C10         2.8991   -2.9458    2.1726 C.ar      1 <0>        -0.1062
     12 N1         -0.6052   -2.5484    1.3639 N.am      1 <0>        -0.7252
     13 C11        -1.3819   -2.6816    0.2705 C.2       1 <0>         0.5106
     14 O1         -0.9483   -2.3813   -0.8216 O.2       1 <0>        -0.5014
     15 C12        -2.7891   -3.2039    0.4050 C.3       1 <0>         0.1034
     16 N2         -3.4196   -3.2544   -0.9165 N.pl3     1 <0>        -0.4744
     17 C13        -4.1405   -2.2563   -1.5337 C.2       1 <0>         0.1869
     18 N3         -4.5216   -2.7236   -2.7022 N.2       1 <0>        -0.2544
     19 N4         -4.0947   -3.9261   -2.8541 N.2       1 <0>        -0.3344
     20 C14        -3.4102   -4.3003   -1.7973 C.2       1 <0>         0.3951
     21 S1         -2.6292   -5.8613   -1.5572 S.3       1 <0>        -0.7876
     22 C15        -4.4299   -0.9202   -0.9886 C.2       1 <0>        -0.0278
     23 C16        -4.8939    0.1963   -1.6371 C.2       1 <0>        -0.1459
     24 C17        -5.0917    1.3484   -0.9096 C.2       1 <0>        -0.1386
     25 C18        -4.8228    1.3455    0.4217 C.2       1 <0>        -0.1907
     26 S2         -4.2760   -0.3325    0.6903 S.3       1 <0>         0.0309
     27 H2          1.0039    1.9031    0.0027 H         1 <0>         0.0479
     28 H3         -0.5459    1.8868   -0.8726 H         1 <0>         0.0517
     29 H4         -0.5289    1.8773    0.9072 H         1 <0>         0.0486
     30 H5         -1.0205   -0.3814    0.0098 H         1 <0>         0.0684
     31 H6          0.5123   -0.3556   -0.8948 H         1 <0>         0.0657
     32 H7          1.7647   -0.1336    1.2338 H         1 <0>         0.0692
     33 H8          0.2319   -0.1594    2.1383 H         1 <0>         0.0640
     34 H9          0.0345   -2.2776    3.8236 H         1 <0>         0.1211
     35 H10         1.3953   -3.0900    5.7081 H         1 <0>         0.1223
     36 H11         3.7202   -3.8070    5.3288 H         1 <0>         0.1206
     37 H12         4.6841   -3.7123    3.0650 H         1 <0>         0.1226
     38 H13         3.3206   -2.9077    1.1790 H         1 <0>         0.1244
     39 H14        -0.9520   -2.7886    2.2373 H         1 <0>         0.3972
     40 H15        -2.7655   -4.2052    0.8348 H         1 <0>         0.1310
     41 H16        -3.3614   -2.5426    1.0555 H         1 <0>         0.1023
     42 H17        -5.0996    0.1721   -2.6970 H         1 <0>         0.1418
     43 H18        -5.4557    2.2436   -1.3918 H         1 <0>         0.1345
     44 H19        -4.9196    2.1503    1.1354 H         1 <0>         0.1837
@<TRIPOS>BOND
     1    1    2 1
     2    1   27 1
     3    1   28 1
     4    1   29 1
     5    2    3 1
     6    2   30 1
     7    2   31 1
     8    3    4 1
     9    3   32 1
    10    3   33 1
    11    4    5 1
    12    4    6 1
    13    4   12 1
    14    6   11 ar
    15    6    7 ar
    16    7    8 ar
    17    7   34 1
    18    8    9 ar
    19    8   35 1
    20    9   10 ar
    21    9   36 1
    22   10   11 ar
    23   10   37 1
    24   11   38 1
    25   12   13 am
    26   12   39 1
    27   13   14 2
    28   13   15 1
    29   15   40 1
    30   15   41 1
    31   15   16 1
    32   16   20 1
    33   16   17 1
    34   17   22 1
    35   17   18 2
    36   18   19 1
    37   19   20 2
    38   20   21 1
    39   22   26 1
    40   22   23 2
    41   23   24 1
    42   23   42 1
    43   24   25 2
    44   24   43 1
    45   25   26 1
    46   25   44 1
@<TRIPOS>MOLECULE
ZINC13942151
   55    58     0     0     0
SMALL
USER_CHARGES

@<TRIPOS>ATOM
      1 C1         -0.3579   -1.1616    0.9634 C.3       1 <0>        -0.1671
      2 C2          0.1250   -2.5663    0.5965 C.3       1 <0>         0.1539
      3 H1          0.8289   -2.9172    1.3512 H         1 <0>         0.0874
      4 C3         -1.0721   -3.5171    0.5344 C.3       1 <0>        -0.0575
      5 C4         -0.5892   -4.9218    0.1675 C.3       1 <0>        -0.1029
      6 C5         -1.7863   -5.8726    0.1054 C.3       1 <0>        -0.0857
      7 C6         -2.4782   -5.9112    1.4695 C.3       1 <0>        -0.1082
      8 C7         -2.9611   -4.5066    1.8364 C.3       1 <0>        -0.0844
      9 C8         -1.7640   -3.5558    1.8985 C.3       1 <0>        -0.1016
     10 C9         -3.9492   -4.0141    0.7771 C.3       1 <0>        -0.1072
     11 C10        -3.2573   -3.9754   -0.5869 C.3       1 <0>        -0.0850
     12 C11        -2.7744   -5.3801   -0.9538 C.3       1 <0>        -0.1087
     13 C12        -2.0602   -3.0246   -0.5248 C.3       1 <0>        -0.1057
     14 N1          0.7875   -2.5293   -0.7096 N.am      1 <0>        -0.7239
     15 C13         2.0913   -2.1990   -0.7947 C.2       1 <0>         0.5305
     16 O1          2.7162   -1.9325    0.2100 O.2       1 <0>        -0.5216
     17 C14         2.7728   -2.1610   -2.1383 C.3       1 <0>        -0.1187
     18 S1          4.5103   -1.6867   -1.9218 S.3       1 <0>        -0.1023
     19 C15         5.1946   -1.8245   -3.5396 C.2       1 <0>         0.4173
     20 N2          6.4918   -1.6472   -3.7262 N.2       1 <0>        -0.5840
     21 C16         7.3120   -1.4746   -2.6616 C.1       1 <0>         0.3842
     22 N3          7.9998   -1.3299   -1.7691 N.1       1 <0>        -0.5347
     23 N4          4.3834   -2.1152   -4.6034 N.2       1 <0>        -0.6584
     24 C17         4.9381   -2.5880   -5.7971 C.ar      1 <0>         0.1947
     25 C18         6.0535   -3.4151   -5.7666 C.ar      1 <0>        -0.1552
     26 C19         6.5985   -3.8807   -6.9471 C.ar      1 <0>        -0.1054
     27 C20         6.0352   -3.5238   -8.1586 C.ar      1 <0>        -0.1864
     28 C21         4.9247   -2.7006   -8.1924 C.ar      1 <0>        -0.1069
     29 C22         4.3713   -2.2362   -7.0153 C.ar      1 <0>        -0.1604
     30 H2          0.4949   -0.4843    1.0077 H         1 <0>         0.0614
     31 H3         -1.0619   -0.8108    0.2088 H         1 <0>         0.0594
     32 H4         -0.8509   -1.1892    1.9352 H         1 <0>         0.0655
     33 H5         -0.0963   -4.8943   -0.8043 H         1 <0>         0.0654
     34 H6          0.1147   -5.2727    0.9222 H         1 <0>         0.0630
     35 H7         -1.4423   -6.8733   -0.1560 H         1 <0>         0.0688
     36 H8         -3.3311   -6.5886    1.4253 H         1 <0>         0.0594
     37 H9         -1.7743   -6.2621    2.2241 H         1 <0>         0.0609
     38 H10        -3.4540   -4.5341    2.8082 H         1 <0>         0.0684
     39 H11        -1.0601   -3.9066    2.6531 H         1 <0>         0.0642
     40 H12        -2.1080   -2.5551    2.1599 H         1 <0>         0.0682
     41 H13        -4.8020   -4.6914    0.7329 H         1 <0>         0.0596
     42 H14        -4.2932   -3.0133    1.0385 H         1 <0>         0.0607
     43 H15        -3.9612   -3.6245   -1.3416 H         1 <0>         0.0688
     44 H16        -2.2815   -5.3526   -1.9256 H         1 <0>         0.0625
     45 H17        -3.6272   -6.0575   -0.9981 H         1 <0>         0.0596
     46 H18        -2.4042   -2.0239   -0.2635 H         1 <0>         0.0689
     47 H19        -1.5673   -2.9971   -1.4966 H         1 <0>         0.0616
     48 H20         0.2877   -2.7425   -1.5131 H         1 <0>         0.3994
     49 H21         2.7202   -3.1467   -2.6005 H         1 <0>         0.1149
     50 H22         2.2744   -1.4327   -2.7780 H         1 <0>         0.1162
     51 H23         6.4943   -3.6935   -4.8208 H         1 <0>         0.1125
     52 H24         7.4658   -4.5238   -6.9241 H         1 <0>         0.1018
     53 H25         6.4637   -3.8887   -9.0803 H         1 <0>         0.1013
     54 H26         4.4873   -2.4234   -9.1402 H         1 <0>         0.1042
     55 H27         3.5013   -1.5968   -7.0422 H         1 <0>         0.1073
@<TRIPOS>BOND
     1    1    2 1
     2    1   30 1
     3    1   31 1
     4    1   32 1
     5    2    3 1
     6    2    4 1
     7    2   14 1
     8    4    9 1
     9    4   13 1
    10    4    5 1
    11    5    6 1
    12    5   33 1
    13    5   34 1
    14    6   12 1
    15    6    7 1
    16    6   35 1
    17    7    8 1
    18    7   36 1
    19    7   37 1
    20    8    9 1
    21    8   10 1
    22    8   38 1
    23    9   39 1
    24    9   40 1
    25   10   11 1
    26   10   41 1
    27   10   42 1
    28   11   12 1
    29   11   13 1
    30   11   43 1
    31   12   44 1
    32   12   45 1
    33   13   46 1
    34   13   47 1
    35   14   15 am
    36   14   48 1
    37   15   16 2
    38   15   17 1
    39   17   18 1
    40   17   49 1
    41   17   50 1
    42   18   19 1
    43   19   20 2
    44   19   23 1
    45   20   21 1
    46   21   22 3
    47   23   24 1
    48   24   29 ar
    49   24   25 ar
    50   25   26 ar
    51   25   51 1
    52   26   27 ar
    53   26   52 1
    54   27   28 ar
    55   27   53 1
    56   28   29 ar
    57   28   54 1
    58   29   55 1
@<TRIPOS>MOLECULE
ZINC00239331
   51    52     0     0     0
SMALL
USER_CHARGES
2-(3,4-dimethylphenoxy)-N-[(4-tert-butylphenyl)methyleneamino]acetamide
@<TRIPOS>ATOM
      1 C1          2.4899    1.0453   -0.0156 C.3       1 <0>        -0.1145
      2 C2          1.1758    1.7829    0.0004 C.ar      1 <0>        -0.1221
      3 C3         -0.0126    1.0758    0.0080 C.ar      1 <0>        -0.0761
      4 C4         -1.2183    1.7495    0.0173 C.ar      1 <0>        -0.2123
      5 C5         -1.2364    3.1369    0.0302 C.ar      1 <0>         0.1251
      6 C6         -0.0430    3.8438    0.0222 C.ar      1 <0>        -0.1431
      7 C7          1.1605    3.1652    0.0071 C.ar      1 <0>        -0.0454
      8 C8          2.4574    3.9326   -0.0017 C.3       1 <0>        -0.1206
      9 O1         -2.4214    3.8020    0.0446 O.3       1 <0>        -0.2892
     10 C9         -3.6103    3.0092    0.0522 C.3       1 <0>         0.0504
     11 C10        -4.8164    3.9126    0.0679 C.2       1 <0>         0.5321
     12 O2         -4.6721    5.1171    0.0722 O.2       1 <0>        -0.4745
     13 N1         -6.0555    3.3824    0.0773 N.am      1 <0>        -0.5833
     14 N2         -7.1767    4.2223    0.0919 N.2       1 <0>        -0.2281
     15 C11        -8.3696    3.7118    0.1008 C.2       1 <0>         0.1175
     16 C12        -9.5500    4.5959    0.1162 C.ar      1 <0>        -0.0667
     17 C13        -9.3875    5.9833    0.1269 C.ar      1 <0>        -0.0732
     18 C14       -10.4960    6.8041    0.1354 C.ar      1 <0>        -0.1268
     19 C15       -11.7665    6.2562    0.1449 C.ar      1 <0>        -0.0497
     20 C16       -11.9350    4.8828    0.1402 C.ar      1 <0>        -0.1215
     21 C17       -10.8356    4.0499    0.1259 C.ar      1 <0>        -0.0848
     22 C18       -12.9726    7.1596    0.1611 C.3       1 <0>        -0.0337
     23 C19       -13.8008    6.8822    1.4173 C.3       1 <0>        -0.1395
     24 C20       -12.5160    8.6199    0.1634 C.3       1 <0>        -0.1471
     25 C21       -13.8255    6.8939   -1.0810 C.3       1 <0>        -0.1396
     26 H1          2.7971    0.8727   -1.0471 H         1 <0>         0.0693
     27 H2          3.2471    1.6410    0.4942 H         1 <0>         0.0704
     28 H3          2.3759    0.0888    0.4945 H         1 <0>         0.0645
     29 H4          0.0021   -0.0041    0.0020 H         1 <0>         0.1263
     30 H5         -2.1462    1.1969    0.0187 H         1 <0>         0.1268
     31 H6         -0.0545    4.9237    0.0274 H         1 <0>         0.1334
     32 H7          2.7603    4.1225   -1.0314 H         1 <0>         0.0754
     33 H8          2.3218    4.8812    0.5179 H         1 <0>         0.0695
     34 H9          3.2281    3.3493    0.5021 H         1 <0>         0.0745
     35 H10        -3.6360    2.3843   -0.8405 H         1 <0>         0.0982
     36 H11        -3.6191    2.3760    0.9394 H         1 <0>         0.0983
     37 H12        -6.1709    2.4193    0.0739 H         1 <0>         0.3874
     38 H13        -8.4981    2.6395    0.0970 H         1 <0>         0.1220
     39 H14        -8.3963    6.4122    0.1244 H         1 <0>         0.1345
     40 H15       -10.3719    7.8769    0.1392 H         1 <0>         0.1314
     41 H16       -12.9296    4.4620    0.1480 H         1 <0>         0.1266
     42 H17       -10.9686    2.9781    0.1225 H         1 <0>         0.1279
     43 H18       -13.1932    7.0715    2.3022 H         1 <0>         0.0573
     44 H19       -14.6732    7.5356    1.4290 H         1 <0>         0.0603
     45 H20       -14.1261    5.8419    1.4156 H         1 <0>         0.0577
     46 H21       -11.9260    8.8175   -0.7315 H         1 <0>         0.0600
     47 H22       -13.3884    9.2733    0.1751 H         1 <0>         0.0599
     48 H23       -11.9084    8.8092    1.0483 H         1 <0>         0.0600
     49 H24       -14.1508    5.8536   -1.0827 H         1 <0>         0.0577
     50 H25       -14.6979    7.5473   -1.0693 H         1 <0>         0.0602
     51 H26       -13.2355    7.0915   -1.9760 H         1 <0>         0.0573
@<TRIPOS>BOND
     1    1    2 1
     2    1   26 1
     3    1   27 1
     4    1   28 1
     5    2    7 ar
     6    2    3 ar
     7    3    4 ar
     8    3   29 1
     9    4    5 ar
    10    4   30 1
    11    5    6 ar
    12    5    9 1
    13    6    7 ar
    14    6   31 1
    15    7    8 1
    16    8   32 1
    17    8   33 1
    18    8   34 1
    19    9   10 1
    20   10   11 1
    21   10   35 1
    22   10   36 1
    23   11   12 2
    24   11   13 am
    25   13   14 1
    26   13   37 1
    27   14   15 2
    28   15   16 1
    29   15   38 1
    30   16   21 ar
    31   16   17 ar
    32   17   18 ar
    33   17   39 1
    34   18   19 ar
    35   18   40 1
    36   19   20 ar
    37   19   22 1
    38   20   21 ar
    39   20   41 1
    40   21   42 1
    41   22   23 1
    42   22   24 1
    43   22   25 1
    44   23   43 1
    45   23   44 1
    46   23   45 1
    47   24   46 1
    48   24   47 1
    49   24   48 1
    50   25   49 1
    51   25   50 1
    52   25   51 1
@<TRIPOS>MOLECULE
ZINC00513974
   46    48     0     0     0
SMALL
USER_CHARGES
N-(4-ethoxyphenyl)-1-isobutyl-benzimidazol-2-amine
@<TRIPOS>ATOM
      1 C1        -10.2741    2.9279    2.8579 C.3       1 <0>        -0.1529
      2 C2         -8.7688    2.6736    2.7562 C.3       1 <0>         0.0542
      3 O1         -8.3424    2.8711    1.4067 O.3       1 <0>        -0.3173
      4 C3         -7.0217    2.6836    1.1428 C.ar      1 <0>         0.1120
      5 C4         -6.5407    2.8588   -0.1465 C.ar      1 <0>        -0.1293
      6 C5         -5.1997    2.6682   -0.4154 C.ar      1 <0>        -0.1113
      7 C6         -4.3326    2.3011    0.6053 C.ar      1 <0>         0.1339
      8 C7         -4.8159    2.1203    1.8945 C.ar      1 <0>        -0.0799
      9 C8         -6.1562    2.3169    2.1629 C.ar      1 <0>        -0.1834
     10 N1         -2.9726    2.1076    0.3334 N.pl3     1 <0>        -0.6437
     11 C9         -2.0311    2.3596    1.3103 C.2       1 <0>         0.5352
     12 N2         -2.2871    2.8734    2.4876 N.2       1 <0>        -0.5300
     13 C10        -1.1331    2.9902    3.1952 C.ar      1 <0>         0.0757
     14 C11        -0.8353    3.4683    4.4739 C.ar      1 <0>        -0.0784
     15 C12         0.4665    3.4571    4.9221 C.ar      1 <0>        -0.1206
     16 C13         1.4853    2.9751    4.1136 C.ar      1 <0>        -0.1145
     17 C14         1.2078    2.4995    2.8486 C.ar      1 <0>        -0.1032
     18 C15        -0.0976    2.5029    2.3809 C.ar      1 <0>         0.0481
     19 N3         -0.6938    2.1072    1.1950 N.pl3     1 <0>        -0.5063
     20 C16        -0.0154    1.5312    0.0313 C.3       1 <0>         0.1140
     21 C17         0.0241    0.0077    0.1664 C.3       1 <0>        -0.1133
     22 C18         0.6198   -0.6017   -1.1043 C.3       1 <0>        -0.1467
     23 C19         0.8883   -0.3754    1.3694 C.3       1 <0>        -0.1510
     24 H1        -10.4908    3.9521    2.5546 H         1 <0>         0.0664
     25 H2        -10.8045    2.2354    2.2043 H         1 <0>         0.0661
     26 H3        -10.5993    2.7772    3.8873 H         1 <0>         0.0786
     27 H4         -8.5520    1.6494    3.0595 H         1 <0>         0.0615
     28 H5         -8.2383    3.3661    3.4098 H         1 <0>         0.0624
     29 H6         -7.2151    3.1447   -0.9401 H         1 <0>         0.1346
     30 H7         -4.8253    2.8050   -1.4192 H         1 <0>         0.1305
     31 H8         -4.1430    1.8305    2.6879 H         1 <0>         0.1442
     32 H9         -6.5314    2.1807    3.1664 H         1 <0>         0.1302
     33 H10        -2.6923    1.7965   -0.5415 H         1 <0>         0.4159
     34 H11        -1.6237    3.8451    5.1087 H         1 <0>         0.1275
     35 H12         0.6961    3.8268    5.9106 H         1 <0>         0.1281
     36 H13         2.5024    2.9721    4.4768 H         1 <0>         0.1280
     37 H14         2.0055    2.1249    2.2243 H         1 <0>         0.1185
     38 H15         1.0023    1.9175   -0.0241 H         1 <0>         0.0947
     39 H16        -0.5565    1.8016   -0.8755 H         1 <0>         0.0863
     40 H17        -0.9879   -0.3706    0.3108 H         1 <0>         0.0750
     41 H18         1.6318   -0.2234   -1.2488 H         1 <0>         0.0601
     42 H19         0.6479   -1.6871   -1.0080 H         1 <0>         0.0645
     43 H20         0.0041   -0.3288   -1.9613 H         1 <0>         0.0582
     44 H21         0.4639    0.0587    2.2746 H         1 <0>         0.0606
     45 H22         0.9165   -1.4608    1.4656 H         1 <0>         0.0595
     46 H23         1.9003    0.0029    1.2249 H         1 <0>         0.0575
@<TRIPOS>BOND
     1    1    2 1
     2    1   24 1
     3    1   25 1
     4    1   26 1
     5    2    3 1
     6    2   27 1
     7    2   28 1
     8    3    4 1
     9    4    9 ar
    10    4    5 ar
    11    5    6 ar
    12    5   29 1
    13    6    7 ar
    14    6   30 1
    15    7    8 ar
    16    7   10 1
    17    8    9 ar
    18    8   31 1
    19    9   32 1
    20   10   11 1
    21   10   33 1
    22   11   19 1
    23   11   12 2
    24   12   13 1
    25   13   18 ar
    26   13   14 ar
    27   14   15 ar
    28   14   34 1
    29   15   16 ar
    30   15   35 1
    31   16   17 ar
    32   16   36 1
    33   17   18 ar
    34   17   37 1
    35   18   19 1
    36   19   20 1
    37   20   21 1
    38   20   38 1
    39   20   39 1
    40   21   22 1
    41   21   23 1
    42   21   40 1
    43   22   41 1
    44   22   42 1
    45   22   43 1
    46   23   44 1
    47   23   45 1
    48   23   46 1
@<TRIPOS>MOLECULE
ZINC36971105
   40    40     0     0     0
SMALL
USER_CHARGES

@<TRIPOS>ATOM
      1 C1         -0.0187    1.5258    0.0104 C.3       1 <0>        -0.1557
      2 C2          0.0021   -0.0041    0.0020 C.3       1 <0>        -0.1199
      3 C3         -1.4333   -0.5336    0.0129 C.3       1 <0>        -0.0938
      4 H1         -1.9862   -0.1019   -0.8214 H         1 <0>         0.0714
      5 C4         -2.1103   -0.1453    1.3289 C.3       1 <0>        -0.1521
      6 C5         -1.4157   -2.0577   -0.1212 C.3       1 <0>        -0.1249
      7 C6         -2.8505   -2.5762   -0.2357 C.3       1 <0>         0.1383
      8 H2         -3.4340   -2.2214    0.6139 H         1 <0>         0.0918
      9 C7         -2.8408   -4.1062   -0.2443 C.3       1 <0>        -0.1414
     10 C8         -4.2799   -4.6254   -0.2331 C.3       1 <0>        -0.1631
     11 N1         -3.4497   -2.0847   -1.4789 N.pl3     1 <0>        -0.7102
     12 C9         -4.8376   -1.9595   -1.5840 C.ar      1 <0>         0.2820
     13 C10        -5.6501   -2.2951   -0.5088 C.ar      1 <0>        -0.1914
     14 C11        -7.0214   -2.1698   -0.6156 C.ar      1 <0>        -0.0027
     15 C12        -7.5863   -1.7112   -1.7916 C.ar      1 <0>        -0.1036
     16 C13        -6.7811   -1.3759   -2.8645 C.ar      1 <0>         0.0050
     17 C14        -5.4077   -1.4933   -2.7627 C.ar      1 <0>        -0.1243
     18 Cl1        -4.3967   -1.0655   -4.1075 Cl        1 <0>        -0.0431
     19 N2         -9.0563   -1.5793   -1.9022 N.pl3     1 <0>         0.0451
     20 O1         -9.7618   -1.8724   -0.9651 O.2       1 <0>        -0.1660
     21 O2         -9.5517   -1.1785   -2.9296 O.3       1 <0>        -0.1683
     22 H3          1.0039    1.9031    0.0027 H         1 <0>         0.0544
     23 H4         -0.5459    1.8868   -0.8726 H         1 <0>         0.0529
     24 H5         -0.5289    1.8773    0.9072 H         1 <0>         0.0570
     25 H6          0.5123   -0.3556   -0.8948 H         1 <0>         0.0611
     26 H7          0.5293   -0.3651    0.8851 H         1 <0>         0.0630
     27 H8         -1.5574   -0.5770    2.1631 H         1 <0>         0.0567
     28 H9         -2.1228    0.9405    1.4244 H         1 <0>         0.0592
     29 H10        -3.1329   -0.5225    1.3366 H         1 <0>         0.0531
     30 H11        -0.8559   -2.3374   -1.0137 H         1 <0>         0.0714
     31 H12        -0.9406   -2.4942    0.7573 H         1 <0>         0.0851
     32 H13        -2.3334   -4.4612   -1.1413 H         1 <0>         0.0694
     33 H14        -2.3159   -4.4711    0.6385 H         1 <0>         0.0781
     34 H15        -4.7873   -4.2704    0.6640 H         1 <0>         0.0597
     35 H16        -4.8048   -4.2605   -1.1159 H         1 <0>         0.0601
     36 H17        -4.2729   -5.7154   -0.2392 H         1 <0>         0.0582
     37 H18        -2.8830   -1.8461   -2.2292 H         1 <0>         0.4089
     38 H19        -5.2101   -2.6541    0.4098 H         1 <0>         0.1603
     39 H20        -7.6535   -2.4308    0.2203 H         1 <0>         0.1574
     40 H21        -7.2255   -1.0180   -3.7815 H         1 <0>         0.1608
@<TRIPOS>BOND
     1    1    2 1
     2    1   22 1
     3    1   23 1
     4    1   24 1
     5    2    3 1
     6    2   25 1
     7    2   26 1
     8    3    4 1
     9    3    5 1
    10    3    6 1
    11    5   27 1
    12    5   28 1
    13    5   29 1
    14    6    7 1
    15    6   30 1
    16    6   31 1
    17    7    8 1
    18    7    9 1
    19    7   11 1
    20    9   10 1
    21    9   32 1
    22    9   33 1
    23   10   34 1
    24   10   35 1
    25   10   36 1
    26   11   12 1
    27   11   37 1
    28   12   17 ar
    29   12   13 ar
    30   13   14 ar
    31   13   38 1
    32   14   15 ar
    33   14   39 1
    34   15   16 ar
    35   15   19 1
    36   16   17 ar
    37   16   40 1
    38   17   18 1
    39   19   20 2
    40   19   21 1
@<TRIPOS>MOLECULE
ZINC40866735
   51    52     0     0     0
SMALL
USER_CHARGES

@<TRIPOS>ATOM
      1 C1         -0.0184    1.5028    0.0103 C.3       1 <0>        -0.1171
      2 C2          0.0021   -0.0041    0.0020 C.ar      1 <0>        -0.0817
      3 C3          0.0057   -0.6883   -1.1997 C.ar      1 <0>        -0.1118
      4 C4          0.0244   -2.0706   -1.2107 C.ar      1 <0>        -0.1113
      5 C5          0.0391   -2.7719   -0.0203 C.ar      1 <0>        -0.0976
      6 C6          0.0355   -2.0879    1.1864 C.ar      1 <0>         0.0873
      7 C7          0.0229   -0.7004    1.1947 C.ar      1 <0>        -0.0931
      8 C8          0.0256    0.0460    2.5038 C.3       1 <0>        -0.1137
      9 O1          0.0500   -2.7755    2.3585 O.3       1 <0>        -0.3018
     10 C9          1.3300   -3.0868    2.9123 C.3       1 <0>         0.0541
     11 C10         1.1485   -3.8452    4.2018 C.2       1 <0>         0.5315
     12 O2          0.0326   -4.0947    4.6068 O.2       1 <0>        -0.4743
     13 N1          2.2259   -4.2464    4.9051 N.am      1 <0>        -0.5845
     14 N2          2.0572   -4.9515    6.1039 N.2       1 <0>        -0.2270
     15 C11         3.0945   -5.3377    6.7809 C.2       1 <0>         0.1152
     16 C12         2.9169   -6.0800    8.0429 C.ar      1 <0>        -0.0654
     17 C13         1.6334   -6.3741    8.5093 C.ar      1 <0>        -0.0732
     18 C14         1.4748   -7.0691    9.6902 C.ar      1 <0>        -0.1233
     19 C15         2.5832   -7.4744   10.4125 C.ar      1 <0>        -0.0564
     20 C16         3.8575   -7.1866    9.9565 C.ar      1 <0>        -0.1206
     21 C17         4.0313   -6.4974    8.7744 C.ar      1 <0>        -0.0853
     22 C18         2.4017   -8.2325   11.7022 C.3       1 <0>        -0.0619
     23 C19         3.0733   -9.6024   11.5875 C.3       1 <0>        -0.1453
     24 C20         3.0390   -7.4465   12.8498 C.3       1 <0>        -0.1453
     25 C21         0.0585   -4.2788   -0.0330 C.3       1 <0>        -0.1170
     26 H1          1.0042    1.8801    0.0026 H         1 <0>         0.0720
     27 H2         -0.5455    1.8639   -0.8728 H         1 <0>         0.0690
     28 H3         -0.5286    1.8543    0.9071 H         1 <0>         0.0704
     29 H4         -0.0065   -0.1419   -2.1312 H         1 <0>         0.1268
     30 H5          0.0272   -2.6027   -2.1505 H         1 <0>         0.1283
     31 H6         -1.0013    0.2123    2.8294 H         1 <0>         0.0766
     32 H7          0.5545   -0.5403    3.2552 H         1 <0>         0.0638
     33 H8          0.5255    1.0058    2.3738 H         1 <0>         0.0705
     34 H9          1.8920   -3.6988    2.2068 H         1 <0>         0.0886
     35 H10         1.8757   -2.1636    3.1075 H         1 <0>         0.0886
     36 H11         3.1183   -4.0469    4.5812 H         1 <0>         0.3867
     37 H12         4.0880   -5.1156    6.4204 H         1 <0>         0.1216
     38 H13         0.7674   -6.0577    7.9469 H         1 <0>         0.1349
     39 H14         0.4831   -7.2972   10.0520 H         1 <0>         0.1262
     40 H15         4.7182   -7.5057   10.5256 H         1 <0>         0.1267
     41 H16         5.0265   -6.2773    8.4174 H         1 <0>         0.1280
     42 H17         1.3378   -8.3648   11.8993 H         1 <0>         0.0796
     43 H18         4.1372   -9.4701   11.3905 H         1 <0>         0.0575
     44 H19         2.9420  -10.1507   12.5204 H         1 <0>         0.0597
     45 H20         2.6193  -10.1623   10.7700 H         1 <0>         0.0568
     46 H21         2.5605   -6.4706   12.9316 H         1 <0>         0.0568
     47 H22         2.9077   -7.9948   13.7827 H         1 <0>         0.0597
     48 H23         4.1029   -7.3142   12.6528 H         1 <0>         0.0575
     49 H24         1.0908   -4.6288   -0.0409 H         1 <0>         0.0677
     50 H25        -0.4463   -4.6561    0.8563 H         1 <0>         0.0751
     51 H26        -0.4549   -4.6412   -0.9236 H         1 <0>         0.0705
@<TRIPOS>BOND
     1    1    2 1
     2    1   26 1
     3    1   27 1
     4    1   28 1
     5    2    7 ar
     6    2    3 ar
     7    3    4 ar
     8    3   29 1
     9    4    5 ar
    10    4   30 1
    11    5    6 ar
    12    5   25 1
    13    6    7 ar
    14    6    9 1
    15    7    8 1
    16    8   31 1
    17    8   32 1
    18    8   33 1
    19    9   10 1
    20   10   11 1
    21   10   34 1
    22   10   35 1
    23   11   12 2
    24   11   13 am
    25   13   14 1
    26   13   36 1
    27   14   15 2
    28   15   16 1
    29   15   37 1
    30   16   21 ar
    31   16   17 ar
    32   17   18 ar
    33   17   38 1
    34   18   19 ar
    35   18   39 1
    36   19   20 ar
    37   19   22 1
    38   20   21 ar
    39   20   40 1
    40   21   41 1
    41   22   23 1
    42   22   24 1
    43   22   42 1
    44   23   43 1
    45   23   44 1
    46   23   45 1
    47   24   46 1
    48   24   47 1
    49   24   48 1
    50   25   49 1
    51   25   50 1
    52   25   51 1
@<TRIPOS>MOLECULE
ZINC11952086
   46    48     0     0     0
SMALL
USER_CHARGES

@<TRIPOS>ATOM
      1 C1         -0.1032    1.4416    0.0222 C.3       1 <0>        -0.1078
      2 C2         -0.2776   -0.0552    0.0257 C.ar      1 <0>        -0.0913
      3 C3         -0.4443   -0.7345   -1.1656 C.ar      1 <0>        -0.1162
      4 C4         -0.6044   -2.1079   -1.1631 C.ar      1 <0>        -0.1146
      5 C5         -0.5982   -2.8048    0.0310 C.ar      1 <0>        -0.1166
      6 C6         -0.4318   -2.1302    1.2250 C.ar      1 <0>        -0.1013
      7 C7         -0.2652   -0.7529    1.2248 C.ar      1 <0>         0.0883
      8 O1         -0.0954   -0.0876    2.3976 O.3       1 <0>        -0.3222
      9 C8         -1.2774    0.2947    3.1037 C.3       1 <0>         0.0673
     10 C9         -0.8935    1.1325    4.3250 C.3       1 <0>         0.0613
     11 O2         -0.3088    2.3630    3.8938 O.3       1 <0>        -0.2903
     12 C10         0.1788    3.1845    4.8576 C.ar      1 <0>         0.1755
     13 C11         0.1908    2.7624    6.1872 C.ar      1 <0>        -0.1957
     14 C12         0.6690    3.5517    7.1841 C.ar      1 <0>        -0.0499
     15 C13         1.1741    4.8346    6.9068 C.ar      1 <0>        -0.0865
     16 C14         1.6716    5.6591    7.9301 C.ar      1 <0>        -0.0891
     17 C15         2.1534    6.8956    7.6247 C.ar      1 <0>        -0.1309
     18 C16         2.1608    7.3583    6.3111 C.ar      1 <0>        -0.0970
     19 C17         1.6854    6.5850    5.2941 C.ar      1 <0>        -0.1192
     20 C18         1.1835    5.3078    5.5722 C.ar      1 <0>         0.0087
     21 C19         0.6699    4.4428    4.5119 C.ar      1 <0>        -0.1455
     22 C20         0.6660    4.8922    3.1116 C.2       1 <0>         0.1601
     23 N1         -0.4412    4.9049    2.4382 N.2       1 <0>        -0.3147
     24 O3         -1.6652    4.6012    3.0823 O.3       1 <0>        -0.4002
     25 C21        -0.4252   -2.8904    2.5262 C.3       1 <0>        -0.1120
     26 H1          0.9596    1.6836    0.0326 H         1 <0>         0.0720
     27 H2         -0.5620    1.8588   -0.8741 H         1 <0>         0.0639
     28 H3         -0.5809    1.8651    0.9057 H         1 <0>         0.0706
     29 H4         -0.4499   -0.1924   -2.0996 H         1 <0>         0.1266
     30 H5         -0.7350   -2.6371   -2.0955 H         1 <0>         0.1258
     31 H6         -0.7238   -3.8775    0.0304 H         1 <0>         0.1261
     32 H7         -1.9189    0.8824    2.4470 H         1 <0>         0.0659
     33 H8         -1.8112   -0.5983    3.4289 H         1 <0>         0.0768
     34 H9         -1.7845    1.3413    4.9170 H         1 <0>         0.0831
     35 H10        -0.1748    0.5818    4.9320 H         1 <0>         0.0740
     36 H11        -0.1908    1.7818    6.4306 H         1 <0>         0.1315
     37 H12         0.6609    3.1899    8.2017 H         1 <0>         0.1324
     38 H13         1.6716    5.3141    8.9535 H         1 <0>         0.1283
     39 H14         2.5352    7.5273    8.4132 H         1 <0>         0.1246
     40 H15         2.5480    8.3431    6.0953 H         1 <0>         0.1259
     41 H16         1.6959    6.9553    4.2796 H         1 <0>         0.1275
     42 H17         1.5858    5.2116    2.6444 H         1 <0>         0.1831
     43 H18        -2.4246    4.5614    2.4851 H         1 <0>         0.3953
     44 H19         0.5944   -3.1926    2.7652 H         1 <0>         0.0742
     45 H20        -0.8111   -2.2527    3.3215 H         1 <0>         0.0646
     46 H21        -1.0541   -3.7758    2.4329 H         1 <0>         0.0674
@<TRIPOS>BOND
     1    1    2 1
     2    1   26 1
     3    1   27 1
     4    1   28 1
     5    2    7 ar
     6    2    3 ar
     7    3    4 ar
     8    3   29 1
     9    4    5 ar
    10    4   30 1
    11    5    6 ar
    12    5   31 1
    13    6    7 ar
    14    6   25 1
    15    7    8 1
    16    8    9 1
    17    9   10 1
    18    9   32 1
    19    9   33 1
    20   10   11 1
    21   10   34 1
    22   10   35 1
    23   11   12 1
    24   12   21 ar
    25   12   13 ar
    26   13   14 ar
    27   13   36 1
    28   14   15 ar
    29   14   37 1
    30   15   20 ar
    31   15   16 ar
    32   16   17 ar
    33   16   38 1
    34   17   18 ar
    35   17   39 1
    36   18   19 ar
    37   18   40 1
    38   19   20 ar
    39   19   41 1
    40   20   21 ar
    41   21   22 1
    42   22   23 2
    43   22   42 1
    44   23   24 1
    45   24   43 1
    46   25   44 1
    47   25   45 1
    48   25   46 1
@<TRIPOS>MOLECULE
ZINC00431821
   48    49     0     0     0
SMALL
USER_CHARGES
2-(3-methylphenoxy)-N-[(4-tert-butylphenyl)methyleneamino]acetamide
@<TRIPOS>ATOM
      1 C1          2.5241    5.5917    0.0079 C.3       1 <0>        -0.1179
      2 C2          2.4635    4.0860    0.0004 C.ar      1 <0>        -0.0445
      3 C3          3.6326    3.3475   -0.0143 C.ar      1 <0>        -0.1563
      4 C4          3.5803    1.9661   -0.0207 C.ar      1 <0>        -0.0753
      5 C5          2.3592    1.3197   -0.0077 C.ar      1 <0>        -0.2175
      6 C6          1.1850    2.0582    0.0018 C.ar      1 <0>         0.1307
      7 C7          1.2402    3.4446    0.0087 C.ar      1 <0>        -0.1477
      8 O1         -0.0173    1.4248    0.0099 O.3       1 <0>        -0.2891
      9 C8          0.0021   -0.0041    0.0020 C.3       1 <0>         0.0501
     10 C9         -1.4117   -0.5257    0.0127 C.2       1 <0>         0.5322
     11 O2         -2.3443    0.2500    0.0258 O.2       1 <0>        -0.4745
     12 N1         -1.6400   -1.8540    0.0078 N.am      1 <0>        -0.5832
     13 N2         -2.9544   -2.3389    0.0177 N.2       1 <0>        -0.2282
     14 C10        -3.1741   -3.6177    0.0129 C.2       1 <0>         0.1177
     15 C11        -4.5578   -4.1282    0.0234 C.ar      1 <0>        -0.0668
     16 C12        -5.6340   -3.2380    0.0442 C.ar      1 <0>        -0.0731
     17 C13        -6.9255   -3.7225    0.0481 C.ar      1 <0>        -0.1268
     18 C14        -7.1561   -5.0868    0.0430 C.ar      1 <0>        -0.0496
     19 C15        -6.0948   -5.9745    0.0281 C.ar      1 <0>        -0.1215
     20 C16        -4.7981   -5.5042    0.0183 C.ar      1 <0>        -0.0848
     21 C17        -8.5699   -5.6084    0.0541 C.3       1 <0>        -0.0338
     22 C18        -8.7866   -6.4680    1.3012 C.3       1 <0>        -0.1395
     23 C19        -9.5476   -4.4317    0.0696 C.3       1 <0>        -0.1471
     24 C20        -8.8109   -6.4553   -1.1971 C.3       1 <0>        -0.1396
     25 H1          2.5486    5.9492    1.0374 H         1 <0>         0.0754
     26 H2          3.4230    5.9217   -0.5128 H         1 <0>         0.0706
     27 H3          1.6446    5.9933   -0.4953 H         1 <0>         0.0702
     28 H4          4.5881    3.8509   -0.0204 H         1 <0>         0.1253
     29 H5          4.4948    1.3916   -0.0319 H         1 <0>         0.1268
     30 H6          2.3190    0.2405   -0.0086 H         1 <0>         0.1267
     31 H7          0.3274    4.0217    0.0202 H         1 <0>         0.1333
     32 H8          0.5123   -0.3556   -0.8948 H         1 <0>         0.0987
     33 H9          0.5293   -0.3651    0.8851 H         1 <0>         0.0986
     34 H10        -0.8943   -2.4742   -0.0027 H         1 <0>         0.3874
     35 H11        -2.3438   -4.3083    0.0013 H         1 <0>         0.1221
     36 H12        -5.4554   -2.1729    0.0532 H         1 <0>         0.1345
     37 H13        -7.7586   -3.0353    0.0597 H         1 <0>         0.1314
     38 H14        -6.2821   -7.0381    0.0246 H         1 <0>         0.1266
     39 H15        -3.9707   -6.1982    0.0071 H         1 <0>         0.1280
     40 H16        -8.6148   -5.8646    2.1926 H         1 <0>         0.0573
     41 H17        -9.8091   -6.8452    1.3093 H         1 <0>         0.0603
     42 H18        -8.0900   -7.3063    1.2902 H         1 <0>         0.0578
     43 H19        -9.3932   -3.8193   -0.8188 H         1 <0>         0.0600
     44 H20       -10.5701   -4.8089    0.0777 H         1 <0>         0.0600
     45 H21        -9.3758   -3.8283    0.9610 H         1 <0>         0.0600
     46 H22        -8.1144   -7.2937   -1.2082 H         1 <0>         0.0578
     47 H23        -9.8335   -6.8326   -1.1891 H         1 <0>         0.0602
     48 H24        -8.6566   -5.8430   -2.0856 H         1 <0>         0.0573
@<TRIPOS>BOND
     1    1    2 1
     2    1   25 1
     3    1   26 1
     4    1   27 1
     5    2    7 ar
     6    2    3 ar
     7    3    4 ar
     8    3   28 1
     9    4    5 ar
    10    4   29 1
    11    5    6 ar
    12    5   30 1
    13    6    7 ar
    14    6    8 1
    15    7   31 1
    16    8    9 1
    17    9   10 1
    18    9   32 1
    19    9   33 1
    20   10   11 2
    21   10   12 am
    22   12   13 1
    23   12   34 1
    24   13   14 2
    25   14   15 1
    26   14   35 1
    27   15   20 ar
    28   15   16 ar
    29   16   17 ar
    30   16   36 1
    31   17   18 ar
    32   17   37 1
    33   18   19 ar
    34   18   21 1
    35   19   20 ar
    36   19   38 1
    37   20   39 1
    38   21   22 1
    39   21   23 1
    40   21   24 1
    41   22   40 1
    42   22   41 1
    43   22   42 1
    44   23   43 1
    45   23   44 1
    46   23   45 1
    47   24   46 1
    48   24   47 1
    49   24   48 1
@<TRIPOS>MOLECULE
ZINC13980937
   52    52     0     0     0
SMALL
USER_CHARGES
N-[[(2E)-3,7-dimethylocta-2,6-dienylidene]amino]-2-(3,5-dimethylphenoxy)acetamide
@<TRIPOS>ATOM
      1 C1          9.8250    5.8559   -4.0961 C.3       1 <0>        -0.1173
      2 C2          8.5818    6.6702   -3.8468 C.ar      1 <0>        -0.0421
      3 C3          8.6192    8.0461   -3.9791 C.ar      1 <0>        -0.1571
      4 C4          7.4800    8.7960   -3.7520 C.ar      1 <0>        -0.0403
      5 C5          6.3013    8.1720   -3.3917 C.ar      1 <0>        -0.1535
      6 C6          6.2613    6.7917   -3.2578 C.ar      1 <0>         0.1352
      7 C7          7.4071    6.0421   -3.4807 C.ar      1 <0>        -0.2186
      8 O1          5.1030    6.1756   -2.9035 O.3       1 <0>        -0.2884
      9 C8          5.1356    4.7519   -2.7845 C.3       1 <0>         0.0501
     10 C9          3.7714    4.2497   -2.3873 C.2       1 <0>         0.5316
     11 O2          2.8607    5.0339   -2.2222 O.2       1 <0>        -0.4746
     12 N1          3.5632    2.9292   -2.2153 N.am      1 <0>        -0.5851
     13 N2          2.2949    2.4623   -1.8460 N.2       1 <0>        -0.2286
     14 C10         2.0941    1.1890   -1.6802 C.2       1 <0>         0.1029
     15 C11         0.7661    0.7001   -1.2934 C.2       1 <0>        -0.1327
     16 C12         0.5604   -0.6042   -1.1236 C.2       1 <0>        -0.0691
     17 C13         1.6917   -1.5784   -1.3286 C.3       1 <0>        -0.1328
     18 C14        -0.8038   -1.1064   -0.7263 C.3       1 <0>        -0.0831
     19 C15        -1.5802   -1.5185   -1.9786 C.3       1 <0>        -0.0890
     20 C16        -2.9444   -2.0207   -1.5814 C.2       1 <0>        -0.1720
     21 C17        -4.0193   -1.4410   -2.0552 C.2       1 <0>        -0.1277
     22 C18        -3.8963   -0.1924   -2.8900 C.3       1 <0>        -0.1240
     23 C19        -5.3790   -2.0227   -1.7653 C.3       1 <0>        -0.1199
     24 C20         7.5240   10.2952   -3.8980 C.3       1 <0>        -0.1173
     25 H1         10.3814    5.7479   -3.1651 H         1 <0>         0.0739
     26 H2          9.5453    4.8704   -4.4686 H         1 <0>         0.0666
     27 H3         10.4477    6.3603   -4.8351 H         1 <0>         0.0701
     28 H4          9.5397    8.5357   -4.2607 H         1 <0>         0.1248
     29 H5          5.4117    8.7582   -3.2147 H         1 <0>         0.1329
     30 H6          7.3797    4.9678   -3.3728 H         1 <0>         0.1263
     31 H7          5.8631    4.4674   -2.0243 H         1 <0>         0.0980
     32 H8          5.4196    4.3137   -3.7413 H         1 <0>         0.0980
     33 H9          4.2914    2.3022   -2.3473 H         1 <0>         0.3859
     34 H10         2.9049    0.4908   -1.8271 H         1 <0>         0.1177
     35 H11        -0.0458    1.3978   -1.1508 H         1 <0>         0.1295
     36 H12         2.2205   -1.7246   -0.3867 H         1 <0>         0.0764
     37 H13         1.2920   -2.5323   -1.6727 H         1 <0>         0.0718
     38 H14         2.3810   -1.1830   -2.0747 H         1 <0>         0.0667
     39 H15        -0.6961   -1.9670   -0.0661 H         1 <0>         0.0773
     40 H16        -1.3451   -0.3156   -0.2070 H         1 <0>         0.0755
     41 H17        -1.6879   -0.6579   -2.6389 H         1 <0>         0.0757
     42 H18        -1.0389   -2.3093   -2.4979 H         1 <0>         0.0730
     43 H19        -3.0358   -2.8586   -0.9061 H         1 <0>         0.1088
     44 H20        -3.7094   -0.4665   -3.9283 H         1 <0>         0.0663
     45 H21        -4.8217    0.3799   -2.8262 H         1 <0>         0.0620
     46 H22        -3.0687    0.4124   -2.5193 H         1 <0>         0.0685
     47 H23        -5.7715   -1.5885   -0.8458 H         1 <0>         0.0664
     48 H24        -6.0542   -1.7971   -2.5908 H         1 <0>         0.0635
     49 H25        -5.2948   -3.1033   -1.6498 H         1 <0>         0.0621
     50 H26         7.7905   10.7458   -2.9420 H         1 <0>         0.0753
     51 H27         8.2683   10.5656   -4.6471 H         1 <0>         0.0702
     52 H28         6.5451   10.6587   -4.2107 H         1 <0>         0.0703
@<TRIPOS>BOND
     1    1    2 1
     2    1   25 1
     3    1   26 1
     4    1   27 1
     5    2    7 ar
     6    2    3 ar
     7    3    4 ar
     8    3   28 1
     9    4    5 ar
    10    4   24 1
    11    5    6 ar
    12    5   29 1
    13    6    7 ar
    14    6    8 1
    15    7   30 1
    16    8    9 1
    17    9   10 1
    18    9   31 1
    19    9   32 1
    20   10   11 2
    21   10   12 am
    22   12   13 1
    23   12   33 1
    24   13   14 2
    25   14   15 1
    26   14   34 1
    27   15   16 2
    28   15   35 1
    29   16   17 1
    30   16   18 1
    31   17   36 1
    32   17   37 1
    33   17   38 1
    34   18   19 1
    35   18   39 1
    36   18   40 1
    37   19   20 1
    38   19   41 1
    39   19   42 1
    40   20   21 2
    41   20   43 1
    42   21   22 1
    43   21   23 1
    44   22   44 1
    45   22   45 1
    46   22   46 1
    47   23   47 1
    48   23   48 1
    49   23   49 1
    50   24   50 1
    51   24   51 1
    52   24   52 1
@<TRIPOS>MOLECULE
ZINC37365440
   37    37     0     0     0
SMALL
USER_CHARGES

@<TRIPOS>ATOM
      1 C1          0.0956    2.7357   -0.7840 C.3       1 <0>        -0.1549
      2 C2          0.1161    1.2370   -0.4768 C.3       1 <0>        -0.1252
      3 C3          0.8089    0.4916   -1.6193 C.3       1 <0>        -0.1218
      4 C4          0.8294   -1.0071   -1.3120 C.3       1 <0>        -0.1305
      5 C5          1.5222   -1.7524   -2.4545 C.3       1 <0>         0.1362
      6 H1          2.5131   -1.3285   -2.6168 H         1 <0>         0.0895
      7 C6          1.6541   -3.2329   -2.0917 C.3       1 <0>        -0.1716
      8 N1          0.7274   -1.6184   -3.6779 N.pl3     1 <0>        -0.7087
      9 C7          1.3429   -1.7318   -4.9265 C.ar      1 <0>         0.3084
     10 C8          2.7242   -1.8537   -5.0134 C.ar      1 <0>        -0.1975
     11 C9          3.3295   -1.9661   -6.2493 C.ar      1 <0>         0.0196
     12 C10         2.5623   -1.9574   -7.4001 C.ar      1 <0>        -0.2436
     13 C11         1.1875   -1.8358   -7.3174 C.ar      1 <0>         0.0415
     14 C12         0.5751   -1.7287   -6.0839 C.ar      1 <0>        -0.1299
     15 N2         -0.8971   -1.6048   -5.9959 N.pl3     1 <0>         0.0423
     16 O1         -1.4975   -2.1532   -5.1013 O.2       1 <0>        -0.1710
     17 O2         -1.4993   -0.9551   -6.8187 O.3       1 <0>        -0.1409
     18 C13         3.2264   -2.0802   -8.7473 C.3       1 <0>         0.5193
     19 F1          4.6107   -2.1897   -8.5766 F         1 <0>        -0.1735
     20 F2          2.7458   -3.2193   -9.4020 F         1 <0>        -0.1743
     21 F3          2.9394   -0.9457   -9.5139 F         1 <0>        -0.1728
     22 H2          1.1179    3.0993   -0.8879 H         1 <0>         0.0538
     23 H3         -0.4478    2.9088   -1.7129 H         1 <0>         0.0532
     24 H4         -0.3980    3.2667    0.0299 H         1 <0>         0.0561
     25 H5          0.6594    1.0640    0.4522 H         1 <0>         0.0634
     26 H6         -0.9062    0.8734   -0.3729 H         1 <0>         0.0627
     27 H7          0.2655    0.6647   -2.5482 H         1 <0>         0.0591
     28 H8          1.8312    0.8552   -1.7231 H         1 <0>         0.0642
     29 H9          1.3727   -1.1801   -0.3831 H         1 <0>         0.0870
     30 H10        -0.1929   -1.3707   -1.2082 H         1 <0>         0.0744
     31 H11         2.1476   -3.7640   -2.9056 H         1 <0>         0.0616
     32 H12         2.2454   -3.3326   -1.1815 H         1 <0>         0.0739
     33 H13         0.6631   -3.6569   -1.9294 H         1 <0>         0.0663
     34 H14        -0.2263   -1.4510   -3.6207 H         1 <0>         0.4139
     35 H15         3.3238   -1.8602   -4.1151 H         1 <0>         0.1568
     36 H16         4.4032   -2.0605   -6.3176 H         1 <0>         0.1564
     37 H17         0.5915   -1.8286   -8.2179 H         1 <0>         0.1566
@<TRIPOS>BOND
     1    1    2 1
     2    1   22 1
     3    1   23 1
     4    1   24 1
     5    2    3 1
     6    2   25 1
     7    2   26 1
     8    3    4 1
     9    3   27 1
    10    3   28 1
    11    4    5 1
    12    4   29 1
    13    4   30 1
    14    5    6 1
    15    5    7 1
    16    5    8 1
    17    7   31 1
    18    7   32 1
    19    7   33 1
    20    8    9 1
    21    8   34 1
    22    9   14 ar
    23    9   10 ar
    24   10   11 ar
    25   10   35 1
    26   11   12 ar
    27   11   36 1
    28   12   13 ar
    29   12   18 1
    30   13   14 ar
    31   13   37 1
    32   14   15 1
    33   15   16 2
    34   15   17 1
    35   18   19 1
    36   18   20 1
    37   18   21 1
@<TRIPOS>MOLECULE
ZINC57656978
   47    48     0     0     0
SMALL
USER_CHARGES

@<TRIPOS>ATOM
      1 C1         -4.5637   -2.1978    1.5537 C.3       1 <0>        -0.1157
      2 C2         -3.2234   -2.7132    1.0964 C.ar      1 <0>        -0.0461
      3 C3         -3.1048   -3.3325   -0.1345 C.ar      1 <0>        -0.1663
      4 C4         -1.8771   -3.8072   -0.5577 C.ar      1 <0>        -0.0722
      5 C5         -0.7644   -3.6639    0.2481 C.ar      1 <0>        -0.1577
      6 C6         -0.8799   -3.0420    1.4846 C.ar      1 <0>         0.2188
      7 C7         -2.1140   -2.5615    1.9045 C.ar      1 <0>        -0.1816
      8 N1          0.2433   -2.8954    2.3019 N.pl3     1 <0>        -0.7486
      9 C8          0.1505   -2.1215    3.5424 C.3       1 <0>         0.1964
     10 H1         -0.5604   -1.3060    3.4095 H         1 <0>         0.1148
     11 C9          1.5257   -1.5478    3.8896 C.3       1 <0>        -0.0262
     12 N2          2.0235   -0.7562    2.7620 N.pl3     1 <0>        -0.0095
     13 O1          1.2974    0.0416    2.2162 O.2       1 <0>        -0.1453
     14 O2          3.1605   -0.9007    2.3771 O.3       1 <0>        -0.1639
     15 C10        -0.3166   -3.0180    4.6600 C.ar      1 <0>        -0.1187
     16 C11         0.1654   -4.3100    4.7571 C.ar      1 <0>        -0.0889
     17 C12        -0.2631   -5.1323    5.7822 C.ar      1 <0>        -0.1166
     18 C13        -1.1732   -4.6626    6.7106 C.ar      1 <0>        -0.0613
     19 C14        -1.6546   -3.3704    6.6140 C.ar      1 <0>        -0.1117
     20 C15        -1.2229   -2.5466    5.5913 C.ar      1 <0>        -0.1001
     21 C16        -1.6411   -5.5595    7.8276 C.3       1 <0>        -0.0608
     22 C17        -1.2787   -4.9290    9.1737 C.3       1 <0>        -0.1451
     23 C18        -3.1584   -5.7355    7.7389 C.3       1 <0>        -0.1454
     24 C19         0.5732   -4.1820   -0.2138 C.3       1 <0>        -0.1054
     25 H2         -4.6889   -1.1671    1.2221 H         1 <0>         0.0719
     26 H3         -5.3548   -2.8151    1.1280 H         1 <0>         0.0669
     27 H4         -4.6167   -2.2385    2.6416 H         1 <0>         0.0638
     28 H5         -3.9732   -3.4459   -0.7665 H         1 <0>         0.1190
     29 H6         -1.7881   -4.2910   -1.5192 H         1 <0>         0.1219
     30 H7         -2.2064   -2.0739    2.8637 H         1 <0>         0.1185
     31 H8          1.0847   -3.3059    2.0481 H         1 <0>         0.3991
     32 H9          1.4421   -0.9121    4.7711 H         1 <0>         0.1507
     33 H10         2.2186   -2.3639    4.0946 H         1 <0>         0.1359
     34 H11         0.8765   -4.6769    4.0318 H         1 <0>         0.1186
     35 H12         0.1130   -6.1419    5.8577 H         1 <0>         0.1239
     36 H13        -2.3660   -3.0036    7.3391 H         1 <0>         0.1258
     37 H14        -1.5961   -1.5358    5.5181 H         1 <0>         0.1252
     38 H15        -1.1568   -6.5320    7.7398 H         1 <0>         0.0787
     39 H16        -0.1978   -4.8036    9.2369 H         1 <0>         0.0559
     40 H17        -1.7630   -3.9564    9.2615 H         1 <0>         0.0574
     41 H18        -1.6171   -5.5777    9.9817 H         1 <0>         0.0607
     42 H19        -3.4166   -6.1847    6.7799 H         1 <0>         0.0565
     43 H20        -3.4968   -6.3842    8.5468 H         1 <0>         0.0606
     44 H21        -3.6427   -4.7629    7.8267 H         1 <0>         0.0575
     45 H22         1.0961   -3.3992   -0.7633 H         1 <0>         0.0678
     46 H23         1.1670   -4.4771    0.6514 H         1 <0>         0.0527
     47 H24         0.4242   -5.0445   -0.8635 H         1 <0>         0.0682
@<TRIPOS>BOND
     1    1    2 1
     2    1   25 1
     3    1   26 1
     4    1   27 1
     5    2    7 ar
     6    2    3 ar
     7    3    4 ar
     8    3   28 1
     9    4    5 ar
    10    4   29 1
    11    5    6 ar
    12    5   24 1
    13    6    7 ar
    14    6    8 1
    15    7   30 1
    16    8    9 1
    17    8   31 1
    18    9   10 1
    19    9   11 1
    20    9   15 1
    21   11   12 1
    22   11   32 1
    23   11   33 1
    24   12   13 2
    25   12   14 1
    26   15   20 ar
    27   15   16 ar
    28   16   17 ar
    29   16   34 1
    30   17   18 ar
    31   17   35 1
    32   18   19 ar
    33   18   21 1
    34   19   20 ar
    35   19   36 1
    36   20   37 1
    37   21   22 1
    38   21   23 1
    39   21   38 1
    40   22   39 1
    41   22   40 1
    42   22   41 1
    43   23   42 1
    44   23   43 1
    45   23   44 1
    46   24   45 1
    47   24   46 1
    48   24   47 1
@<TRIPOS>MOLECULE
ZINC66540792
   51    51     0     0     0
SMALL
USER_CHARGES

@<TRIPOS>ATOM
      1 C1         -0.0187    1.5258    0.0104 C.3       1 <0>        -0.1534
      2 C2          0.0021   -0.0041    0.0020 C.3       1 <0>         0.0801
      3 O1         -1.3386   -0.4987    0.0122 O.3       1 <0>        -0.3668
      4 C3         -1.4968   -1.8357    0.0065 C.2       1 <0>         0.6477
      5 O2         -0.5233   -2.5627   -0.0067 O.2       1 <0>        -0.5691
      6 N1         -2.7351   -2.3678    0.0155 N.am      1 <0>        -0.7062
      7 C4         -2.9073   -3.8226    0.0093 C.3       1 <0>         0.1594
      8 C5         -2.8562   -4.3361   -1.4311 C.3       1 <0>        -0.1291
      9 C6         -3.0360   -5.8555   -1.4375 C.3       1 <0>        -0.1117
     10 C7         -4.3884   -6.2116   -0.8168 C.3       1 <0>         0.0864
     11 C8         -4.4396   -5.6981    0.6235 C.3       1 <0>        -0.1328
     12 C9         -4.2597   -4.1787    0.6300 C.3       1 <0>        -0.1230
     13 O3         -4.5564   -7.6307   -0.8228 O.3       1 <0>        -0.3415
     14 C10        -5.8122   -8.0952   -0.9176 C.2       1 <0>         0.4786
     15 O4         -6.7381   -7.3226   -0.9929 O.2       1 <0>        -0.4808
     16 C11        -6.0672   -9.5805   -0.9300 C.3       1 <0>        -0.1052
     17 S1         -7.8499   -9.8868   -1.0663 S.3       1 <0>        -0.1875
     18 C12        -7.9855  -11.6957   -1.0679 C.3       1 <0>        -0.1018
     19 C13        -9.4578  -12.0966   -1.1796 C.3       1 <0>        -0.0987
     20 C14        -9.5722  -13.6223   -1.1810 C.3       1 <0>        -0.0911
     21 C15       -11.0487  -14.0231   -1.1670 C.3       1 <0>        -0.1489
     22 C16        -8.9035  -14.1828   -2.4378 C.3       1 <0>        -0.1522
     23 H1          1.0039    1.9031    0.0027 H         1 <0>         0.0829
     24 H2         -0.5459    1.8868   -0.8726 H         1 <0>         0.0668
     25 H3         -0.5289    1.8773    0.9072 H         1 <0>         0.0669
     26 H4          0.5123   -0.3556   -0.8948 H         1 <0>         0.0685
     27 H5          0.5293   -0.3651    0.8851 H         1 <0>         0.0685
     28 H6         -3.5123   -1.7874    0.0260 H         1 <0>         0.4079
     29 H7         -2.1085   -4.2855    0.5887 H         1 <0>         0.0968
     30 H8         -3.6550   -3.8732   -2.0104 H         1 <0>         0.0716
     31 H9         -1.8927   -4.0824   -1.8732 H         1 <0>         0.0812
     32 H10        -2.9996   -6.2213   -2.4636 H         1 <0>         0.0788
     33 H11        -2.2372   -6.3184   -0.8581 H         1 <0>         0.0808
     34 H12        -5.1872   -5.7487   -1.3962 H         1 <0>         0.0887
     35 H13        -5.4030   -5.9518    1.0657 H         1 <0>         0.0777
     36 H14        -3.6407   -6.1610    1.2029 H         1 <0>         0.0796
     37 H15        -4.2961   -3.8128    1.6561 H         1 <0>         0.0814
     38 H16        -5.0585   -3.7158    0.0506 H         1 <0>         0.0765
     39 H17        -5.5552  -10.0299   -1.7809 H         1 <0>         0.1227
     40 H18        -5.6923  -10.0212   -0.0062 H         1 <0>         0.1229
     41 H19        -7.4333  -12.1007   -1.9158 H         1 <0>         0.0863
     42 H20        -7.5704  -12.0920   -0.1412 H         1 <0>         0.0833
     43 H21       -10.0101  -11.6916   -0.3317 H         1 <0>         0.0740
     44 H22        -9.8730  -11.7003   -2.1063 H         1 <0>         0.0743
     45 H23        -9.0782  -14.0245   -0.2965 H         1 <0>         0.0718
     46 H24       -11.5428  -13.6209   -2.0515 H         1 <0>         0.0564
     47 H25       -11.1302  -15.1100   -1.1680 H         1 <0>         0.0572
     48 H26       -11.5251  -13.6238   -0.2716 H         1 <0>         0.0562
     49 H27        -8.9850  -15.2697   -2.4388 H         1 <0>         0.0564
     50 H28        -9.3976  -13.7806   -3.3223 H         1 <0>         0.0569
     51 H29        -7.8516  -13.8973   -2.4478 H         1 <0>         0.0547
@<TRIPOS>BOND
     1    1    2 1
     2    1   23 1
     3    1   24 1
     4    1   25 1
     5    2    3 1
     6    2   26 1
     7    2   27 1
     8    3    4 1
     9    4    5 2
    10    4    6 am
    11    6    7 1
    12    6   28 1
    13    7   12 1
    14    7    8 1
    15    7   29 1
    16    8    9 1
    17    8   30 1
    18    8   31 1
    19    9   10 1
    20    9   32 1
    21    9   33 1
    22   10   11 1
    23   10   13 1
    24   10   34 1
    25   11   12 1
    26   11   35 1
    27   11   36 1
    28   12   37 1
    29   12   38 1
    30   13   14 1
    31   14   15 2
    32   14   16 1
    33   16   17 1
    34   16   39 1
    35   16   40 1
    36   17   18 1
    37   18   19 1
    38   18   41 1
    39   18   42 1
    40   19   20 1
    41   19   43 1
    42   19   44 1
    43   20   21 1
    44   20   22 1
    45   20   45 1
    46   21   46 1
    47   21   47 1
    48   21   48 1
    49   22   49 1
    50   22   50 1
    51   22   51 1
@<TRIPOS>MOLECULE
ZINC02627622
   37    39     0     0     0
SMALL
USER_CHARGES
5-[2-(2-fluorophenoxy)ethylsulfanyl]-N-phenyl-1,3,4-thiadiazol-2-amine
@<TRIPOS>ATOM
      1 C1          9.0183    2.3046    0.2386 C.ar      1 <0>        -0.1352
      2 C2          7.9918    1.6827   -0.4485 C.ar      1 <0>        -0.0907
      3 C3          6.7535    2.2872   -0.5387 C.ar      1 <0>        -0.1317
      4 C4          6.5395    3.5216    0.0619 C.ar      1 <0>         0.1530
      5 C5          7.5744    4.1460    0.7469 C.ar      1 <0>        -0.1467
      6 C6          8.8089    3.5336    0.8372 C.ar      1 <0>        -0.0935
      7 N1          5.2880    4.1363   -0.0277 N.pl3     1 <0>        -0.6042
      8 C7          4.1456    3.3644   -0.2075 C.2       1 <0>         0.3374
      9 N2          4.0157    2.0521   -0.2100 N.2       1 <0>        -0.3513
     10 N3          2.7772    1.4869   -0.4084 N.2       1 <0>        -0.2710
     11 C8          1.7250    2.2609   -0.5952 C.2       1 <0>         0.0405
     12 S1          2.4626    3.8852   -0.5028 S.3       1 <0>         0.0222
     13 S2          0.0435    1.8122   -0.8701 S.3       1 <0>         0.0718
     14 C9          0.0628   -0.0014   -0.8406 C.3       1 <0>        -0.1240
     15 C10        -1.3544   -0.5304   -1.0701 C.3       1 <0>         0.0767
     16 O1         -1.3392   -1.9591   -1.0469 O.3       1 <0>        -0.3004
     17 C11        -2.5273   -2.5922   -1.2366 C.ar      1 <0>         0.0967
     18 C12        -3.6840   -1.8537   -1.4349 C.ar      1 <0>        -0.1821
     19 C13        -4.8898   -2.4992   -1.6318 C.ar      1 <0>        -0.0885
     20 C14        -4.9465   -3.8806   -1.6213 C.ar      1 <0>        -0.1261
     21 C15        -3.7964   -4.6208   -1.4191 C.ar      1 <0>        -0.1155
     22 C16        -2.5857   -3.9800   -1.2263 C.ar      1 <0>         0.0715
     23 F1         -1.4618   -4.7029   -1.0278 F         1 <0>        -0.1306
     24 H1          9.9857    1.8296    0.3076 H         1 <0>         0.1262
     25 H2          8.1590    0.7233   -0.9154 H         1 <0>         0.1284
     26 H3          5.9524    1.8011   -1.0757 H         1 <0>         0.1404
     27 H4          7.4128    5.1077    1.2111 H         1 <0>         0.1279
     28 H5          9.6129    4.0168    1.3724 H         1 <0>         0.1297
     29 H6          5.2162    5.1016    0.0355 H         1 <0>         0.4312
     30 H7          0.7203   -0.3706   -1.6277 H         1 <0>         0.1126
     31 H8          0.4266   -0.3452    0.1276 H         1 <0>         0.1125
     32 H9         -2.0119   -0.1612   -0.2830 H         1 <0>         0.0792
     33 H10        -1.7182   -0.1866   -2.0384 H         1 <0>         0.0793
     34 H11        -3.6419   -0.7745   -1.4392 H         1 <0>         0.1387
     35 H12        -5.7900   -1.9237   -1.7899 H         1 <0>         0.1347
     36 H13        -5.8911   -4.3824   -1.7710 H         1 <0>         0.1366
     37 H14        -3.8433   -5.6997   -1.4113 H         1 <0>         0.1443
@<TRIPOS>BOND
     1    1    6 ar
     2    1    2 ar
     3    1   24 1
     4    2    3 ar
     5    2   25 1
     6    3    4 ar
     7    3   26 1
     8    4    5 ar
     9    4    7 1
    10    5    6 ar
    11    5   27 1
    12    6   28 1
    13    7    8 1
    14    7   29 1
    15    8   12 1
    16    8    9 2
    17    9   10 1
    18   10   11 2
    19   11   12 1
    20   11   13 1
    21   13   14 1
    22   14   15 1
    23   14   30 1
    24   14   31 1
    25   15   16 1
    26   15   32 1
    27   15   33 1
    28   16   17 1
    29   17   22 ar
    30   17   18 ar
    31   18   19 ar
    32   18   34 1
    33   19   20 ar
    34   19   35 1
    35   20   21 ar
    36   20   36 1
    37   21   22 ar
    38   21   37 1
    39   22   23 1
@<TRIPOS>MOLECULE
ZINC21987975
   54    55     0     0     0
SMALL
USER_CHARGES
methyl (2R)-5-[(2R)-6-hydroxy-2,5,7,8-tetramethyl-chroman-2-yl]-2-methyl-pentanoate
@<TRIPOS>ATOM
      1 C1          2.3948    5.5789   -0.7474 C.3       1 <0>        -0.1053
      2 C2          2.3823    4.1211   -0.3658 C.ar      1 <0>        -0.0946
      3 C3          1.1930    3.4215   -0.3485 C.ar      1 <0>        -0.0801
      4 C4          1.1758    2.0756    0.0020 C.ar      1 <0>         0.1036
      5 C5          2.3578    1.4361    0.3324 C.ar      1 <0>        -0.1211
      6 C6          3.5504    2.1393    0.3163 C.ar      1 <0>        -0.1532
      7 C7          3.5661    3.4805   -0.0320 C.ar      1 <0>         0.1283
      8 O1          4.7398    4.1669   -0.0468 O.3       1 <0>        -0.5068
      9 C8          4.8369    1.4432    0.6787 C.3       1 <0>        -0.1094
     10 C9          2.3821   -0.0227    0.7128 C.3       1 <0>        -0.0787
     11 C10         0.9714   -0.4804    1.0915 C.3       1 <0>        -0.1494
     12 C11         0.0021   -0.0041    0.0020 C.3       1 <0>         0.1208
     13 O2         -0.0173    1.4240    0.0099 O.3       1 <0>        -0.3018
     14 C12         0.4752   -0.5056   -1.3638 C.3       1 <0>        -0.1796
     15 C13        -1.4017   -0.5401    0.2898 C.3       1 <0>        -0.1045
     16 C14        -2.3424   -0.1444   -0.8501 C.3       1 <0>        -0.1213
     17 C15        -3.7462   -0.6804   -0.5623 C.3       1 <0>        -0.1066
     18 C16        -4.6869   -0.2846   -1.7023 C.3       1 <0>        -0.0822
     19 H1         -4.6695    0.8066   -1.8400 H         1 <0>         0.1108
     20 C17        -4.2452   -0.9787   -2.9922 C.3       1 <0>        -0.1491
     21 C18        -6.0934   -0.7052   -1.3618 C.2       1 <0>         0.4613
     22 O3         -6.3202   -1.2640   -0.3149 O.2       1 <0>        -0.5065
     23 O4         -7.0943   -0.4588   -2.2217 O.3       1 <0>        -0.3590
     24 C19        -8.4231   -0.8918   -1.8280 C.3       1 <0>         0.0306
     25 C20        -0.0927    4.1185   -0.7120 C.3       1 <0>        -0.1086
     26 H2          1.3701    5.9067   -0.9767 H         1 <0>         0.0685
     27 H3          3.0319    5.7207   -1.6328 H         1 <0>         0.0682
     28 H4          2.7915    6.1734    0.0888 H         1 <0>         0.0682
     29 H5          5.6781    3.6577    0.2182 H         1 <0>         0.4220
     30 H6          5.6716    2.1563    0.6098 H         1 <0>         0.0589
     31 H7          5.0100    0.6078   -0.0157 H         1 <0>         0.0736
     32 H8          4.7681    1.0574    1.7065 H         1 <0>         0.0743
     33 H9          2.7422   -0.6179   -0.1393 H         1 <0>         0.0797
     34 H10         3.0550   -0.1667    1.5710 H         1 <0>         0.0809
     35 H11         0.9488   -1.5778    1.1631 H         1 <0>         0.0835
     36 H12         0.6924   -0.0439    2.0619 H         1 <0>         0.0768
     37 H13        -0.2221   -0.1622   -2.1421 H         1 <0>         0.0710
     38 H14         0.5075   -1.6051   -1.3596 H         1 <0>         0.0712
     39 H15         1.4804   -0.1100   -1.5716 H         1 <0>         0.0636
     40 H16        -1.3659   -1.6365    0.3718 H         1 <0>         0.0834
     41 H17        -1.7705   -0.1137    1.2343 H         1 <0>         0.0753
     42 H18        -2.3782    0.9520   -0.9321 H         1 <0>         0.0738
     43 H19        -1.9736   -0.5708   -1.7946 H         1 <0>         0.0721
     44 H20        -3.7104   -1.7768   -0.4804 H         1 <0>         0.0720
     45 H21        -4.1150   -0.2540    0.3822 H         1 <0>         0.0739
     46 H22        -4.9215   -0.6942   -3.8118 H         1 <0>         0.0698
     47 H23        -4.2780   -2.0692   -2.8515 H         1 <0>         0.0613
     48 H24        -3.2185   -0.6718   -3.2407 H         1 <0>         0.0763
     49 H25        -9.1430   -0.6299   -2.6174 H         1 <0>         0.1038
     50 H26        -8.7089   -0.3920   -0.8907 H         1 <0>         0.0641
     51 H27        -8.4241   -1.9815   -1.6776 H         1 <0>         0.0638
     52 H28        -0.9283    3.4065   -0.6419 H         1 <0>         0.0754
     53 H29        -0.0235    4.5025   -1.7405 H         1 <0>         0.0684
     54 H30        -0.2648    4.9552   -0.0190 H         1 <0>         0.0685
@<TRIPOS>BOND
     1    1    2 1
     2    1   26 1
     3    1   27 1
     4    1   28 1
     5    2    7 ar
     6    2    3 ar
     7    3    4 ar
     8    3   25 1
     9    4   13 1
    10    4    5 ar
    11    5    6 ar
    12    5   10 1
    13    6    7 ar
    14    6    9 1
    15    7    8 1
    16    8   29 1
    17    9   30 1
    18    9   31 1
    19    9   32 1
    20   10   11 1
    21   10   33 1
    22   10   34 1
    23   11   12 1
    24   11   35 1
    25   11   36 1
    26   12   13 1
    27   12   14 1
    28   12   15 1
    29   14   37 1
    30   14   38 1
    31   14   39 1
    32   15   16 1
    33   15   40 1
    34   15   41 1
    35   16   17 1
    36   16   42 1
    37   16   43 1
    38   17   18 1
    39   17   44 1
    40   17   45 1
    41   18   19 1
    42   18   20 1
    43   18   21 1
    44   20   46 1
    45   20   47 1
    46   20   48 1
    47   21   22 2
    48   21   23 1
    49   23   24 1
    50   24   49 1
    51   24   50 1
    52   24   51 1
    53   25   52 1
    54   25   53 1
    55   25   54 1
@<TRIPOS>MOLECULE
ZINC37061797
   41    42     0     0     0
SMALL
USER_CHARGES

@<TRIPOS>ATOM
      1 C1         -0.0184    1.5028    0.0103 C.3       1 <0>        -0.1073
      2 C2          0.0021   -0.0041    0.0020 C.ar      1 <0>        -0.1634
      3 C3          0.0058   -0.6889   -1.1975 C.ar      1 <0>        -0.0069
      4 C4          0.0246   -2.0714   -1.2060 C.ar      1 <0>        -0.1089
      5 C5          0.0397   -2.7733   -0.0143 C.ar      1 <0>        -0.0080
      6 C6          0.0360   -2.0949    1.1884 C.ar      1 <0>        -0.1975
      7 C7          0.0230   -0.7057    1.2005 C.ar      1 <0>         0.2700
      8 N1          0.0251   -0.0163    2.4152 N.pl3     1 <0>        -0.7210
      9 C8          0.0472   -0.7580    3.6784 C.3       1 <0>         0.1392
     10 H1         -0.5309   -1.6758    3.5709 H         1 <0>         0.0871
     11 C9          1.4925   -1.1050    4.0409 C.3       1 <0>        -0.1720
     12 C10        -0.5638    0.1028    4.7860 C.3       1 <0>        -0.1214
     13 C11        -2.0441    0.3458    4.4851 C.3       1 <0>        -0.0803
     14 C12        -2.6459    1.1936    5.5760 C.ar      1 <0>        -0.0852
     15 C13        -3.2033    0.5936    6.6896 C.ar      1 <0>        -0.1177
     16 C14        -3.7553    1.3712    7.6903 C.ar      1 <0>        -0.1169
     17 C15        -3.7495    2.7490    7.5776 C.ar      1 <0>        -0.1233
     18 C16        -3.1912    3.3490    6.4644 C.ar      1 <0>        -0.1173
     19 C17        -2.6354    2.5715    5.4657 C.ar      1 <0>        -0.1184
     20 N2          0.0280   -2.8018   -2.4932 N.pl3     1 <0>         0.0450
     21 O1          0.0144   -2.1897   -3.5357 O.2       1 <0>        -0.1742
     22 O2          0.0444   -4.0107   -2.5022 O.3       1 <0>        -0.1738
     23 H2          1.0042    1.8801    0.0026 H         1 <0>         0.0744
     24 H3         -0.5455    1.8639   -0.8728 H         1 <0>         0.0764
     25 H4         -0.5286    1.8543    0.9071 H         1 <0>         0.0646
     26 H5         -0.0063   -0.1439   -2.1298 H         1 <0>         0.1507
     27 H6          0.0540   -3.8531   -0.0245 H         1 <0>         0.1508
     28 H7          0.0475   -2.6436    2.1185 H         1 <0>         0.1448
     29 H8          0.0119    0.9536    2.4225 H         1 <0>         0.4055
     30 H9          2.0706   -0.1872    4.1483 H         1 <0>         0.0617
     31 H10         1.5089   -1.6569    4.9807 H         1 <0>         0.0704
     32 H11         1.9278   -1.7182    3.2518 H         1 <0>         0.0621
     33 H12        -0.4671   -0.4125    5.7416 H         1 <0>         0.0848
     34 H13        -0.0412    1.0581    4.8337 H         1 <0>         0.0723
     35 H14        -2.1408    0.8610    3.5294 H         1 <0>         0.0725
     36 H15        -2.5667   -0.6096    4.4373 H         1 <0>         0.0741
     37 H16        -3.2078   -0.4828    6.7777 H         1 <0>         0.1211
     38 H17        -4.1914    0.9024    8.5600 H         1 <0>         0.1225
     39 H18        -4.1813    3.3565    8.3591 H         1 <0>         0.1220
     40 H19        -3.1870    4.4254    6.3762 H         1 <0>         0.1221
     41 H20        -2.1959    3.0404    4.5978 H         1 <0>         0.1191
@<TRIPOS>BOND
     1    1    2 1
     2    1   23 1
     3    1   24 1
     4    1   25 1
     5    2    7 ar
     6    2    3 ar
     7    3    4 ar
     8    3   26 1
     9    4    5 ar
    10    4   20 1
    11    5    6 ar
    12    5   27 1
    13    6    7 ar
    14    6   28 1
    15    7    8 1
    16    8    9 1
    17    8   29 1
    18    9   10 1
    19    9   11 1
    20    9   12 1
    21   11   30 1
    22   11   31 1
    23   11   32 1
    24   12   13 1
    25   12   33 1
    26   12   34 1
    27   13   14 1
    28   13   35 1
    29   13   36 1
    30   14   19 ar
    31   14   15 ar
    32   15   16 ar
    33   15   37 1
    34   16   17 ar
    35   16   38 1
    36   17   18 ar
    37   17   39 1
    38   18   19 ar
    39   18   40 1
    40   19   41 1
    41   20   21 2
    42   20   22 1
@<TRIPOS>MOLECULE
ZINC47387666
   28    28     0     0     0
SMALL
USER_CHARGES

@<TRIPOS>ATOM
      1 C1         -0.0169    1.3915    0.0097 C.ar      1 <0>        -0.0568
      2 C2          1.1702    2.0945    0.0021 C.ar      1 <0>        -0.0584
      3 C3          2.3776    1.4190   -0.0130 C.ar      1 <0>        -0.0255
      4 C4          2.4034    0.0357   -0.0207 C.ar      1 <0>        -0.0599
      5 C5          1.2235   -0.6793   -0.0137 C.ar      1 <0>        -0.0869
      6 C6          0.0021   -0.0041    0.0020 C.ar      1 <0>        -0.0853
      7 C7         -1.2662   -0.7638    0.0105 C.2       1 <0>         0.5604
      8 O1         -2.3284   -0.1731    0.0243 O.2       1 <0>        -0.5122
      9 N1         -1.2445   -2.1114    0.0031 N.am      1 <0>        -0.7208
     10 C8         -2.5013   -2.8643    0.0115 C.3       1 <0>         0.1372
     11 C9         -2.1976   -4.3638    0.0005 C.3       1 <0>        -0.1212
     12 S1         -3.7537   -5.2960    0.0109 S.3       1 <0>        -0.1352
     13 C10        -3.2257   -7.0314   -0.0036 C.3       1 <0>         0.4667
     14 F1         -2.4477   -7.2917    1.1296 F         1 <0>        -0.1666
     15 F2         -4.3518   -7.8615    0.0031 F         1 <0>        -0.1439
     16 F3         -2.4704   -7.2794   -1.1548 F         1 <0>        -0.1666
     17 N2          3.6473    2.1796   -0.0216 N.pl3     1 <0>         0.0270
     18 O2          3.6279    3.3885   -0.0153 O.2       1 <0>        -0.1472
     19 O3          4.7039    1.5921   -0.0348 O.3       1 <0>        -0.1488
     20 H1         -0.9586    1.9199    0.0260 H         1 <0>         0.1632
     21 H2          1.1570    3.1744    0.0077 H         1 <0>         0.1641
     22 H3          3.3492   -0.4856   -0.0325 H         1 <0>         0.1625
     23 H4          1.2450   -1.7591   -0.0204 H         1 <0>         0.1500
     24 H5         -0.3968   -2.5828   -0.0079 H         1 <0>         0.4044
     25 H6         -3.0681   -2.6150    0.9085 H         1 <0>         0.0903
     26 H7         -3.0858   -2.6054   -0.8713 H         1 <0>         0.0903
     27 H8         -1.6307   -4.6131   -0.8965 H         1 <0>         0.1095
     28 H9         -1.6130   -4.6226    0.8833 H         1 <0>         0.1095
@<TRIPOS>BOND
     1    1    6 ar
     2    1    2 ar
     3    1   20 1
     4    2    3 ar
     5    2   21 1
     6    3    4 ar
     7    3   17 1
     8    4    5 ar
     9    4   22 1
    10    5    6 ar
    11    5   23 1
    12    6    7 1
    13    7    8 2
    14    7    9 am
    15    9   10 1
    16    9   24 1
    17   10   11 1
    18   10   25 1
    19   10   26 1
    20   11   12 1
    21   11   27 1
    22   11   28 1
    23   12   13 1
    24   13   14 1
    25   13   15 1
    26   13   16 1
    27   17   18 2
    28   17   19 1
@<TRIPOS>MOLECULE
ZINC64687161
   44    44     0     0     0
SMALL
USER_CHARGES

@<TRIPOS>ATOM
      1 C1         -0.0187    1.5258    0.0104 C.3       1 <0>        -0.1481
      2 C2          0.0021   -0.0041    0.0020 C.3       1 <0>        -0.0915
      3 C3          0.7421   -0.5109    1.2415 C.3       1 <0>        -0.1421
      4 C4         -1.4333   -0.5336    0.0129 C.3       1 <0>        -0.1252
      5 C5         -1.4157   -2.0577   -0.1212 C.3       1 <0>         0.1744
      6 C6         -2.8192   -2.5900    0.0125 C.2       1 <0>         0.4641
      7 O1         -3.3178   -3.2133   -0.8944 O.2       1 <0>        -0.4911
      8 O2         -3.5152   -2.3716    1.1393 O.3       1 <0>        -0.3346
      9 C7         -4.8397   -2.9050    1.1973 C.3       1 <0>         0.1302
     10 C8         -5.8303   -1.8699    0.6605 C.3       1 <0>        -0.1666
     11 C9         -5.1853   -3.2374    2.6260 C.ar      1 <0>        -0.0999
     12 C10        -4.5545   -2.5744    3.6617 C.ar      1 <0>        -0.1027
     13 C11        -4.8722   -2.8794    4.9740 C.ar      1 <0>         0.0931
     14 C12        -5.8221   -3.8487    5.2491 C.ar      1 <0>        -0.1192
     15 C13        -6.4527   -4.5114    4.2137 C.ar      1 <0>        -0.1206
     16 C14        -6.1386   -4.2026    2.9009 C.ar      1 <0>         0.1016
     17 F1         -6.7589   -4.8471    1.8884 F         1 <0>        -0.1291
     18 F2         -4.2553   -2.2317    5.9865 F         1 <0>        -0.1303
     19 N1         -0.8765   -2.4263   -1.4325 N.am      1 <0>        -0.6985
     20 C15         0.4560   -2.5245   -1.6099 C.2       1 <0>         0.6519
     21 O3          1.2100   -2.3073   -0.6822 O.2       1 <0>        -0.5531
     22 O4          0.9515   -2.8633   -2.8151 O.3       1 <0>        -0.3628
     23 C16         2.3732   -2.9486   -2.9313 C.3       1 <0>         0.0540
     24 H1          1.0039    1.9031    0.0027 H         1 <0>         0.0564
     25 H2         -0.5459    1.8868   -0.8726 H         1 <0>         0.0514
     26 H3         -0.5289    1.8773    0.9072 H         1 <0>         0.0554
     27 H4          0.5123   -0.3556   -0.8948 H         1 <0>         0.0754
     28 H5          0.7568   -1.6008    1.2356 H         1 <0>         0.0706
     29 H6          1.7647   -0.1336    1.2338 H         1 <0>         0.0521
     30 H7          0.2319   -0.1594    2.1383 H         1 <0>         0.0461
     31 H8         -1.9156   -0.2570    0.9504 H         1 <0>         0.0924
     32 H9         -1.9862   -0.1019   -0.8214 H         1 <0>         0.0749
     33 H10        -0.7891   -2.4841    0.6622 H         1 <0>         0.1362
     34 H11        -4.8943   -3.8089    0.5906 H         1 <0>         0.1037
     35 H12        -5.7757   -0.9660    1.2672 H         1 <0>         0.0737
     36 H13        -5.5804   -1.6295   -0.3728 H         1 <0>         0.0722
     37 H14        -6.8406   -2.2768    0.7048 H         1 <0>         0.0811
     38 H15        -3.8133   -1.8187    3.4471 H         1 <0>         0.1545
     39 H16        -6.0698   -4.0868    6.2730 H         1 <0>         0.1499
     40 H17        -7.1933   -5.2676    4.4283 H         1 <0>         0.1517
     41 H18        -1.4784   -2.5997   -2.1731 H         1 <0>         0.4172
     42 H19         2.6382   -3.2293   -3.9506 H         1 <0>         0.1051
     43 H20         2.8159   -1.9813   -2.6940 H         1 <0>         0.0631
     44 H21         2.7499   -3.7005   -2.2378 H         1 <0>         0.0630
@<TRIPOS>BOND
     1    1    2 1
     2    1   24 1
     3    1   25 1
     4    1   26 1
     5    2    3 1
     6    2    4 1
     7    2   27 1
     8    3   28 1
     9    3   29 1
    10    3   30 1
    11    4    5 1
    12    4   31 1
    13    4   32 1
    14    5    6 1
    15    5   19 1
    16    5   33 1
    17    6    7 2
    18    6    8 1
    19    8    9 1
    20    9   10 1
    21    9   11 1
    22    9   34 1
    23   10   35 1
    24   10   36 1
    25   10   37 1
    26   11   16 ar
    27   11   12 ar
    28   12   13 ar
    29   12   38 1
    30   13   14 ar
    31   13   18 1
    32   14   15 ar
    33   14   39 1
    34   15   16 ar
    35   15   40 1
    36   16   17 1
    37   19   20 am
    38   19   41 1
    39   20   21 2
    40   20   22 1
    41   22   23 1
    42   23   42 1
    43   23   43 1
    44   23   44 1
@<TRIPOS>MOLECULE
ZINC20013424
   34    35     0     0     0
SMALL
USER_CHARGES
N-[(1S)-1-[4-(difluoromethoxy)phenyl]ethyl]-3,5-difluoro-aniline
@<TRIPOS>ATOM
      1 C1         -1.1412    4.0517   -1.4076 C.3       1 <0>        -0.1665
      2 C2         -1.2537    3.5323    0.0272 C.3       1 <0>         0.1927
      3 H1         -0.4040    3.8713    0.6380 H         1 <0>         0.0912
      4 C3         -2.5448    4.0150    0.6364 C.ar      1 <0>        -0.1153
      5 C4         -3.7313    3.3697    0.3403 C.ar      1 <0>        -0.0746
      6 C5         -4.9153    3.8066    0.9019 C.ar      1 <0>        -0.1849
      7 C6         -4.9150    4.9012    1.7543 C.ar      1 <0>         0.1081
      8 C7         -3.7240    5.5504    2.0453 C.ar      1 <0>        -0.1285
      9 C8         -2.5417    5.1058    1.4860 C.ar      1 <0>        -0.0727
     10 O1         -6.0795    5.3369    2.3030 O.3       1 <0>        -0.3187
     11 C9         -7.2669    4.6203    1.9589 C.3       1 <0>         0.4089
     12 F1         -7.4600    4.6752    0.5744 F         1 <0>        -0.1984
     13 F2         -7.1389    3.2860    2.3594 F         1 <0>        -0.1984
     14 N1         -1.2350    2.0675    0.0191 N.pl3     1 <0>        -0.7424
     15 C10        -0.0168    1.3846    0.0097 C.ar      1 <0>         0.2814
     16 C11         1.1777    2.0933    0.0021 C.ar      1 <0>        -0.2527
     17 C12         2.3832    1.4149   -0.0126 C.ar      1 <0>         0.1804
     18 C13         2.3996    0.0303   -0.0207 C.ar      1 <0>        -0.2558
     19 C14         1.2099   -0.6783   -0.0131 C.ar      1 <0>         0.1803
     20 C15         0.0021   -0.0041    0.0020 C.ar      1 <0>        -0.2462
     21 F3          1.2288   -2.0292   -0.0201 F         1 <0>        -0.1302
     22 F4          3.5453    2.1038   -0.0191 F         1 <0>        -0.1302
     23 H2         -0.1988    3.6994   -1.8522 H         1 <0>         0.0662
     24 H3         -1.1551    5.1516   -1.4015 H         1 <0>         0.0700
     25 H4         -1.9888    3.6775   -2.0005 H         1 <0>         0.0638
     26 H5         -3.7317    2.5208   -0.3274 H         1 <0>         0.1280
     27 H6         -5.8412    3.2993    0.6741 H         1 <0>         0.1358
     28 H7         -3.7212    6.4030    2.7084 H         1 <0>         0.1385
     29 H8         -1.6143    5.6109    1.7122 H         1 <0>         0.1365
     30 H9         -8.1430    5.0596    2.4584 H         1 <0>         0.1873
     31 H10        -2.1805    1.5054    0.0204 H         1 <0>         0.4229
     32 H11         1.1653    3.1733    0.0080 H         1 <0>         0.1402
     33 H12         3.3417   -0.4977   -0.0325 H         1 <0>         0.1441
     34 H13        -0.9255   -0.5571    0.0083 H         1 <0>         0.1390
@<TRIPOS>BOND
     1    1    2 1
     2    1   23 1
     3    1   24 1
     4    1   25 1
     5    2    3 1
     6    2    4 1
     7    2   14 1
     8    4    9 ar
     9    4    5 ar
    10    5    6 ar
    11    5   26 1
    12    6    7 ar
    13    6   27 1
    14    7    8 ar
    15    7   10 1
    16    8    9 ar
    17    8   28 1
    18    9   29 1
    19   10   11 1
    20   11   12 1
    21   11   13 1
    22   11   30 1
    23   14   15 1
    24   14   31 1
    25   15   20 ar
    26   15   16 ar
    27   16   17 ar
    28   16   32 1
    29   17   18 ar
    30   17   22 1
    31   18   19 ar
    32   18   33 1
    33   19   20 ar
    34   19   21 1
    35   20   34 1
@<TRIPOS>MOLECULE
ZINC35450903
   33    34     0     0     0
SMALL
USER_CHARGES

@<TRIPOS>ATOM
      1 C1         -0.0187    1.5258    0.0104 C.3       1 <0>        -0.1717
      2 C2          0.0021   -0.0041    0.0020 C.3       1 <0>         0.1459
      3 H1          0.5123   -0.3556   -0.8948 H         1 <0>         0.0853
      4 C3          0.7421   -0.5109    1.2415 C.3       1 <0>        -0.1236
      5 C4          0.8719   -2.0337    1.1708 C.3       1 <0>        -0.0387
      6 C5          1.6008   -2.5330    2.3917 C.2       1 <0>        -0.0138
      7 C6          1.0299   -2.9040    3.5518 C.2       1 <0>        -0.2097
      8 C7          2.0770   -3.3005    4.4152 C.2       1 <0>        -0.2138
      9 C8          3.2250   -3.1480    3.7311 C.2       1 <0>        -0.0416
     10 O1          2.9301   -2.6883    2.5041 O.3       1 <0>        -0.1763
     11 N1         -1.3723   -0.5112    0.0124 N.pl3     1 <0>        -0.7342
     12 C9         -2.0755   -0.6475   -1.1867 C.ar      1 <0>         0.2451
     13 C10        -1.4709   -0.3081   -2.3902 C.ar      1 <0>        -0.1896
     14 C11        -2.1690   -0.4445   -3.5754 C.ar      1 <0>         0.0261
     15 C12        -3.4690   -0.9187   -3.5637 C.ar      1 <0>        -0.1647
     16 C13        -4.0740   -1.2571   -2.3659 C.ar      1 <0>         0.0265
     17 C14        -3.3786   -1.1281   -1.1783 C.ar      1 <0>        -0.1867
     18 Cl1        -5.7054   -1.8505   -2.3557 Cl        1 <0>        -0.0567
     19 Cl2        -1.4143   -0.0201   -5.0801 Cl        1 <0>        -0.0569
     20 H2          1.0039    1.9031    0.0027 H         1 <0>         0.0680
     21 H3         -0.5459    1.8868   -0.8726 H         1 <0>         0.0626
     22 H4         -0.5289    1.8773    0.9072 H         1 <0>         0.0613
     23 H5          1.7350   -0.0630    1.2804 H         1 <0>         0.0855
     24 H6          0.1838   -0.2350    2.1361 H         1 <0>         0.0757
     25 H7         -0.1210   -2.4817    1.1320 H         1 <0>         0.0946
     26 H8          1.4302   -2.3096    0.2763 H         1 <0>         0.0831
     27 H9         -0.0257   -2.8994    3.7801 H         1 <0>         0.1463
     28 H10         1.9746   -3.6571    5.4295 H         1 <0>         0.1483
     29 H11         4.2157   -3.3626    4.1039 H         1 <0>         0.2030
     30 H12        -1.7940   -0.7522    0.8520 H         1 <0>         0.4040
     31 H13        -0.4565    0.0623   -2.4000 H         1 <0>         0.1390
     32 H14        -4.0126   -1.0245   -4.4909 H         1 <0>         0.1406
     33 H15        -3.8496   -1.3969   -0.2443 H         1 <0>         0.1371
@<TRIPOS>BOND
     1    1    2 1
     2    1   20 1
     3    1   21 1
     4    1   22 1
     5    2    3 1
     6    2    4 1
     7    2   11 1
     8    4    5 1
     9    4   23 1
    10    4   24 1
    11    5    6 1
    12    5   25 1
    13    5   26 1
    14    6   10 1
    15    6    7 2
    16    7    8 1
    17    7   27 1
    18    8    9 2
    19    8   28 1
    20    9   10 1
    21    9   29 1
    22   11   12 1
    23   11   30 1
    24   12   17 ar
    25   12   13 ar
    26   13   14 ar
    27   13   31 1
    28   14   15 ar
    29   14   19 1
    30   15   16 ar
    31   15   32 1
    32   16   17 ar
    33   16   18 1
    34   17   33 1
@<TRIPOS>MOLECULE
ZINC37777786
   30    30     0     0     0
SMALL
USER_CHARGES

@<TRIPOS>ATOM
      1 C1         -0.0187    1.5258    0.0104 C.3       1 <0>        -0.1544
      2 C2          0.0021   -0.0041    0.0020 C.3       1 <0>        -0.1314
      3 C3          0.7421   -0.5109    1.2415 C.3       1 <0>         0.1417
      4 H1          0.2852   -0.0874    2.1360 H         1 <0>         0.0836
      5 C4          0.6554   -2.0374    1.2986 C.3       1 <0>        -0.1730
      6 N1          2.1476   -0.1038    1.1716 N.pl3     1 <0>        -0.7275
      7 C5          2.8961    0.0315    2.3462 C.ar      1 <0>         0.2546
      8 C6          2.3084   -0.2254    3.5777 C.ar      1 <0>        -0.1842
      9 C7          3.0481   -0.0915    4.7377 C.ar      1 <0>         0.0261
     10 C8          4.3777    0.3001    4.6716 C.ar      1 <0>         0.0163
     11 C9          4.9654    0.5574    3.4412 C.ar      1 <0>         0.0261
     12 C10         4.2283    0.4173    2.2802 C.ar      1 <0>        -0.1814
     13 Cl1         6.6285    1.0483    3.3594 Cl        1 <0>        -0.0342
     14 O1          5.1052    0.4322    5.8136 O.3       1 <0>        -0.3117
     15 C11         5.8072   -0.7246    6.2731 C.3       1 <0>         0.4004
     16 F1          4.8943   -1.7542    6.5259 F         1 <0>        -0.1992
     17 F2          6.7166   -1.1379    5.2937 F         1 <0>        -0.1991
     18 Cl2         2.3135   -0.4126    6.2774 Cl        1 <0>        -0.0345
     19 H2          1.0039    1.9031    0.0027 H         1 <0>         0.0561
     20 H3         -0.5459    1.8868   -0.8726 H         1 <0>         0.0577
     21 H4         -0.5289    1.8773    0.9072 H         1 <0>         0.0561
     22 H5         -1.0205   -0.3814    0.0098 H         1 <0>         0.0808
     23 H6          0.5123   -0.3556   -0.8948 H         1 <0>         0.0692
     24 H7          1.1826   -2.3985    2.1817 H         1 <0>         0.0609
     25 H8         -0.3904   -2.3402    1.3506 H         1 <0>         0.0685
     26 H9          1.1123   -2.4609    0.4042 H         1 <0>         0.0611
     27 H10         2.5595    0.0718    0.3111 H         1 <0>         0.4054
     28 H11         1.2733   -0.5294    3.6293 H         1 <0>         0.1462
     29 H12         4.6872    0.6126    1.3222 H         1 <0>         0.1449
     30 H13         6.3452   -0.4829    7.1897 H         1 <0>         0.1751
@<TRIPOS>BOND
     1    1    2 1
     2    1   19 1
     3    1   20 1
     4    1   21 1
     5    2    3 1
     6    2   22 1
     7    2   23 1
     8    3    4 1
     9    3    5 1
    10    3    6 1
    11    5   24 1
    12    5   25 1
    13    5   26 1
    14    6    7 1
    15    6   27 1
    16    7   12 ar
    17    7    8 ar
    18    8    9 ar
    19    8   28 1
    20    9   10 ar
    21    9   18 1
    22   10   11 ar
    23   10   14 1
    24   11   12 ar
    25   11   13 1
    26   12   29 1
    27   14   15 1
    28   15   16 1
    29   15   17 1
    30   15   30 1
@<TRIPOS>MOLECULE
ZINC44271780
   35    36     0     0     0
SMALL
USER_CHARGES

@<TRIPOS>ATOM
      1 C1         -0.0483    1.5515   -0.0584 C.3       1 <0>        -0.1470
      2 C2          0.0216    0.0267    0.0460 C.3       1 <0>        -0.0972
      3 C3          0.7585   -0.3634    1.3289 C.3       1 <0>        -0.1497
      4 C4         -1.3961   -0.5479    0.0773 C.3       1 <0>         0.2452
      5 H1         -1.9470   -0.1108    0.9101 H         1 <0>         0.1037
      6 C5         -2.0986   -0.2226   -1.2156 C.2       1 <0>        -0.1656
      7 C6         -2.9915    0.7631   -1.4774 C.2       1 <0>        -0.1474
      8 C7         -3.5124    0.8742   -2.7529 C.2       1 <0>        -0.1584
      9 C8         -3.1150   -0.0058   -3.7042 C.2       1 <0>        -0.1736
     10 S1         -1.9650   -1.0307   -2.8019 S.3       1 <0>         0.0570
     11 N1         -1.3302   -2.0018    0.2450 N.pl3     1 <0>        -0.7137
     12 C9         -2.4254   -2.6937    0.7488 C.ar      1 <0>         0.4146
     13 C10        -3.5447   -1.9906    1.1834 C.ar      1 <0>        -0.2031
     14 C11        -4.6273   -2.6917    1.6824 C.ar      1 <0>        -0.0304
     15 C12        -4.5543   -4.0778    1.7303 C.ar      1 <0>        -0.1802
     16 C13        -3.4125   -4.7106    1.2821 C.ar      1 <0>         0.0888
     17 N2         -2.3964   -4.0161    0.8058 N.ar      1 <0>        -0.5061
     18 C14        -3.3273   -6.2144    1.3321 C.3       1 <0>         0.5221
     19 F1         -3.8154   -6.7491    0.1350 F         1 <0>        -0.1703
     20 F2         -1.9939   -6.6003    1.5058 F         1 <0>        -0.1647
     21 F3         -4.0935   -6.6896    2.4018 F         1 <0>        -0.1702
     22 H2          0.9616    1.9609   -0.0807 H         1 <0>         0.0645
     23 H3         -0.5733    1.8294   -0.9723 H         1 <0>         0.0620
     24 H4         -0.5831    1.9506    0.8035 H         1 <0>         0.0592
     25 H5          0.5564   -0.3724   -0.8159 H         1 <0>         0.0811
     26 H6          0.2696    0.1022    2.1846 H         1 <0>         0.0591
     27 H7          0.7383   -1.4471    1.4442 H         1 <0>         0.0601
     28 H8          1.7924   -0.0232    1.2717 H         1 <0>         0.0633
     29 H9         -3.2916    1.4511   -0.7009 H         1 <0>         0.1326
     30 H10        -4.2256    1.6504   -2.9879 H         1 <0>         0.1341
     31 H11        -3.4135   -0.0682   -4.7403 H         1 <0>         0.1852
     32 H12        -0.5222   -2.4816    0.0044 H         1 <0>         0.4105
     33 H13        -3.5675   -0.9121    1.1322 H         1 <0>         0.1408
     34 H14        -5.5095   -2.1730    2.0274 H         1 <0>         0.1475
     35 H15        -5.3825   -4.6546    2.1148 H         1 <0>         0.1464
@<TRIPOS>BOND
     1    1    2 1
     2    1   22 1
     3    1   23 1
     4    1   24 1
     5    2    3 1
     6    2    4 1
     7    2   25 1
     8    3   26 1
     9    3   27 1
    10    3   28 1
    11    4    5 1
    12    4    6 1
    13    4   11 1
    14    6   10 1
    15    6    7 2
    16    7    8 1
    17    7   29 1
    18    8    9 2
    19    8   30 1
    20    9   10 1
    21    9   31 1
    22   11   12 1
    23   11   32 1
    24   12   17 ar
    25   12   13 ar
    26   13   14 ar
    27   13   33 1
    28   14   15 ar
    29   14   34 1
    30   15   16 ar
    31   15   35 1
    32   16   17 ar
    33   16   18 1
    34   18   19 1
    35   18   20 1
    36   18   21 1
@<TRIPOS>MOLECULE
ZINC60941555
   37    38     0     0     0
SMALL
USER_CHARGES

@<TRIPOS>ATOM
      1 C1         -0.0187    1.5258    0.0104 C.3       1 <0>        -0.1494
      2 C2          0.0021   -0.0041    0.0020 C.3       1 <0>        -0.0465
      3 H1          0.5123   -0.3556   -0.8948 H         1 <0>         0.0825
      4 C3          0.7421   -0.5109    1.2415 C.3       1 <0>        -0.1244
      5 C4          2.2100   -0.0858    1.1685 C.3       1 <0>         0.1172
      6 N1          2.9186   -0.5711    2.3554 N.pl3     1 <0>        -0.7331
      7 C5          4.2772   -0.3049    2.5131 C.ar      1 <0>         0.2218
      8 C6          4.9580    0.4266    1.5455 C.ar      1 <0>        -0.1799
      9 C7          6.3004    0.6921    1.6979 C.ar      1 <0>        -0.0231
     10 C8          6.9805    0.2258    2.8268 C.ar      1 <0>        -0.0679
     11 C9          6.2946   -0.5093    3.7984 C.ar      1 <0>        -0.0533
     12 C10         4.9496   -0.7672    3.6425 C.ar      1 <0>         0.0166
     13 F1          4.2841   -1.4730    4.5828 F         1 <0>        -0.1368
     14 C11         8.3767    0.5002    2.9874 C.1       1 <0>         0.2583
     15 N2          9.4844    0.7178    3.1149 N.1       1 <0>        -0.4201
     16 C12        -1.4117   -0.5257    0.0127 C.ar      1 <0>        -0.0793
     17 C13        -2.2591   -0.2043    1.0565 C.ar      1 <0>        -0.1147
     18 C14        -3.5560   -0.6827    1.0663 C.ar      1 <0>        -0.1183
     19 C15        -4.0056   -1.4823    0.0321 C.ar      1 <0>        -0.1230
     20 C16        -3.1585   -1.8029   -1.0121 C.ar      1 <0>        -0.1178
     21 C17        -1.8629   -1.3209   -1.0241 C.ar      1 <0>        -0.1168
     22 H2          1.0039    1.9031    0.0027 H         1 <0>         0.0619
     23 H3         -0.5459    1.8868   -0.8726 H         1 <0>         0.0597
     24 H4         -0.5289    1.8773    0.9072 H         1 <0>         0.0588
     25 H5          0.2852   -0.0874    2.1360 H         1 <0>         0.0739
     26 H6          0.6803   -1.5984    1.2822 H         1 <0>         0.0734
     27 H7          2.6669   -0.5093    0.2741 H         1 <0>         0.0682
     28 H8          2.2717    1.0017    1.1279 H         1 <0>         0.0716
     29 H9          2.4419   -1.0777    3.0315 H         1 <0>         0.4074
     30 H10         4.4328    0.7867    0.6731 H         1 <0>         0.1418
     31 H11         6.8277    1.2599    0.9457 H         1 <0>         0.1396
     32 H12         6.8171   -0.8714    4.6715 H         1 <0>         0.1448
     33 H13        -1.9079    0.4204    1.8645 H         1 <0>         0.1204
     34 H14        -4.2179   -0.4322    1.8822 H         1 <0>         0.1217
     35 H15        -5.0186   -1.8567    0.0402 H         1 <0>         0.1214
     36 H16        -3.5096   -2.4278   -1.8199 H         1 <0>         0.1221
     37 H17        -1.2022   -1.5684   -1.8418 H         1 <0>         0.1213
@<TRIPOS>BOND
     1    1    2 1
     2    1   22 1
     3    1   23 1
     4    1   24 1
     5    2    3 1
     6    2    4 1
     7    2   16 1
     8    4    5 1
     9    4   25 1
    10    4   26 1
    11    5    6 1
    12    5   27 1
    13    5   28 1
    14    6    7 1
    15    6   29 1
    16    7   12 ar
    17    7    8 ar
    18    8    9 ar
    19    8   30 1
    20    9   10 ar
    21    9   31 1
    22   10   11 ar
    23   10   14 1
    24   11   12 ar
    25   11   32 1
    26   12   13 1
    27   14   15 3
    28   16   21 ar
    29   16   17 ar
    30   17   18 ar
    31   17   33 1
    32   18   19 ar
    33   18   34 1
    34   19   20 ar
    35   19   35 1
    36   20   21 ar
    37   20   36 1
    38   21   37 1
@<TRIPOS>MOLECULE
ZINC20175390
   46    47     0     0     0
SMALL
USER_CHARGES
(2R)-2-(4-tert-butylphenyl)-2-(o-tolylmethylamino)acetonitrile
@<TRIPOS>ATOM
      1 C1          4.0681    0.2816   -0.7158 C.3       1 <0>        -0.1193
      2 C2          4.3405    1.7304   -1.0282 C.ar      1 <0>        -0.0791
      3 C3          5.6364    2.2115   -1.0017 C.ar      1 <0>        -0.1195
      4 C4          5.8863    3.5402   -1.2887 C.ar      1 <0>        -0.1132
      5 C5          4.8404    4.3883   -1.6024 C.ar      1 <0>        -0.1251
      6 C6          3.5455    3.9061   -1.6340 C.ar      1 <0>        -0.0941
      7 C7          3.2949    2.5782   -1.3418 C.ar      1 <0>        -0.0840
      8 C8          1.8825    2.0537   -1.3712 C.3       1 <0>         0.0810
      9 N1          1.3603    1.9762   -0.0003 N.3       1 <0>        -0.6383
     10 C9         -0.0179    1.4678    0.0101 C.3       1 <0>         0.2192
     11 H1         -0.5317    1.8219   -0.8958 H         1 <0>         0.1275
     12 C10         0.0021   -0.0041    0.0020 C.1       1 <0>         0.1685
     13 N2          0.0175   -1.1399   -0.0042 N.1       1 <0>        -0.4085
     14 C11        -0.7233    1.9538    1.2500 C.ar      1 <0>        -0.0831
     15 C12        -0.0534    1.9853    2.4588 C.ar      1 <0>        -0.0829
     16 C13        -0.6990    2.4357    3.5952 C.ar      1 <0>        -0.1221
     17 C14        -2.0176    2.8446    3.5248 C.ar      1 <0>        -0.0590
     18 C15        -2.6890    2.8081    2.3170 C.ar      1 <0>        -0.1159
     19 C16        -2.0419    2.3627    1.1796 C.ar      1 <0>        -0.0999
     20 C17        -2.7232    3.3297    4.7649 C.3       1 <0>        -0.0315
     21 C18        -3.9359    2.4393    5.0429 C.3       1 <0>        -0.1413
     22 C19        -1.7630    3.2698    5.9545 C.3       1 <0>        -0.1475
     23 C20        -3.1872    4.7727    4.5562 C.3       1 <0>        -0.1407
     24 H2          5.0160   -0.2298   -0.4922 H         1 <0>         0.0704
     25 H3          3.5891   -0.1967   -1.5829 H         1 <0>         0.0694
     26 H4          3.4004    0.2137    0.1557 H         1 <0>         0.0632
     27 H5          6.4535    1.5490   -0.7570 H         1 <0>         0.1217
     28 H6          6.8986    3.9160   -1.2683 H         1 <0>         0.1220
     29 H7          5.0357    5.4264   -1.8270 H         1 <0>         0.1226
     30 H8          2.7289    4.5675   -1.8834 H         1 <0>         0.1239
     31 H9          1.2521    2.7311   -1.9660 H         1 <0>         0.0916
     32 H10         1.8729    1.0515   -1.8244 H         1 <0>         0.0481
     33 H11         1.9907    1.2987    0.5944 H         1 <0>         0.3489
     34 H12         0.9754    1.6616    2.5146 H         1 <0>         0.1218
     35 H13        -0.1745    2.4638    4.5388 H         1 <0>         0.1284
     36 H14        -3.7193    3.1273    2.2621 H         1 <0>         0.1235
     37 H15        -2.5666    2.3339    0.2361 H         1 <0>         0.1243
     38 H16        -4.4509    2.7934    5.9481 H         1 <0>         0.0601
     39 H17        -3.6024    1.4019    5.1929 H         1 <0>         0.0566
     40 H18        -4.6262    2.4825    4.1876 H         1 <0>         0.0577
     41 H19        -2.2781    3.6239    6.8596 H         1 <0>         0.0596
     42 H20        -0.8912    3.9100    5.7546 H         1 <0>         0.0603
     43 H21        -1.4294    2.2324    6.1045 H         1 <0>         0.0591
     44 H22        -3.7022    5.1268    5.4614 H         1 <0>         0.0596
     45 H23        -3.8776    4.8158    3.7009 H         1 <0>         0.0578
     46 H24        -2.3153    5.4129    4.3563 H         1 <0>         0.0579
@<TRIPOS>BOND
     1    1    2 1
     2    1   24 1
     3    1   25 1
     4    1   26 1
     5    2    7 ar
     6    2    3 ar
     7    3    4 ar
     8    3   27 1
     9    4    5 ar
    10    4   28 1
    11    5    6 ar
    12    5   29 1
    13    6    7 ar
    14    6   30 1
    15    7    8 1
    16    8    9 1
    17    8   31 1
    18    8   32 1
    19    9   10 1
    20    9   33 1
    21   10   11 1
    22   10   12 1
    23   10   14 1
    24   12   13 3
    25   14   19 ar
    26   14   15 ar
    27   15   16 ar
    28   15   34 1
    29   16   17 ar
    30   16   35 1
    31   17   18 ar
    32   17   20 1
    33   18   19 ar
    34   18   36 1
    35   19   37 1
    36   20   21 1
    37   20   22 1
    38   20   23 1
    39   21   38 1
    40   21   39 1
    41   21   40 1
    42   22   41 1
    43   22   42 1
    44   22   43 1
    45   23   44 1
    46   23   45 1
    47   23   46 1
@<TRIPOS>MOLECULE
ZINC36957440
   38    39     0     0     0
SMALL
USER_CHARGES

@<TRIPOS>ATOM
      1 C1         -0.0187    1.5258    0.0104 C.3       1 <0>        -0.1648
      2 C2          0.0021   -0.0041    0.0020 C.3       1 <0>         0.1950
      3 H1          0.5293   -0.3651    0.8851 H         1 <0>         0.0873
      4 C3         -1.4117   -0.5257    0.0127 C.ar      1 <0>        -0.1305
      5 C4         -2.1405   -0.5683   -1.1615 C.ar      1 <0>        -0.0710
      6 C5         -3.4369   -1.0456   -1.1543 C.ar      1 <0>        -0.1466
      7 C6         -4.0072   -1.4828    0.0324 C.ar      1 <0>         0.1298
      8 C7         -3.2737   -1.4394    1.2092 C.ar      1 <0>        -0.2044
      9 C8         -1.9759   -0.9661    1.1957 C.ar      1 <0>        -0.0668
     10 O1         -5.2825   -1.9524    0.0422 O.3       1 <0>        -0.3169
     11 C9         -5.8047   -2.3855    1.2999 C.3       1 <0>         0.0261
     12 N1          0.6878   -0.4765   -1.2033 N.pl3     1 <0>        -0.7355
     13 C10         2.0831   -0.5913   -1.2154 C.ar      1 <0>         0.2418
     14 C11         2.8174   -0.2637   -0.0860 C.ar      1 <0>        -0.1853
     15 C12         4.1956   -0.3773   -0.1002 C.ar      1 <0>        -0.0730
     16 C13         4.8455   -0.8171   -1.2386 C.ar      1 <0>        -0.1613
     17 C14         4.1215   -1.1464   -2.3693 C.ar      1 <0>        -0.0849
     18 C15         2.7383   -1.0410   -2.3622 C.ar      1 <0>        -0.1595
     19 S1          1.8121   -1.4668   -3.7994 S.3       1 <0>        -0.1376
     20 C16         3.0731   -1.9821   -4.9974 C.3       1 <0>        -0.1355
     21 H2          1.0039    1.9031    0.0027 H         1 <0>         0.0639
     22 H3         -0.5459    1.8868   -0.8726 H         1 <0>         0.0611
     23 H4         -0.5289    1.8773    0.9072 H         1 <0>         0.0667
     24 H5         -1.6961   -0.2279   -2.0850 H         1 <0>         0.1267
     25 H6         -4.0060   -1.0781   -2.0716 H         1 <0>         0.1331
     26 H7         -3.7155   -1.7792    2.1343 H         1 <0>         0.1306
     27 H8         -1.4030   -0.9362    2.1107 H         1 <0>         0.1273
     28 H9         -6.8284   -2.7355    1.1671 H         1 <0>         0.1018
     29 H10        -5.1904   -3.1981    1.6879 H         1 <0>         0.0564
     30 H11        -5.7935   -1.5535    2.0039 H         1 <0>         0.0565
     31 H12         0.1751   -0.7099   -1.9930 H         1 <0>         0.4013
     32 H13         2.3132    0.0805    0.8049 H         1 <0>         0.1269
     33 H14         4.7660   -0.1214    0.7805 H         1 <0>         0.1238
     34 H15         5.9221   -0.9033   -1.2445 H         1 <0>         0.1215
     35 H16         4.6325   -1.4893   -3.2569 H         1 <0>         0.1211
     36 H17         3.7592   -1.1552   -5.1810 H         1 <0>         0.0832
     37 H18         3.6270   -2.8321   -4.5989 H         1 <0>         0.0832
     38 H19         2.5909   -2.2684   -5.9320 H         1 <0>         0.1082
@<TRIPOS>BOND
     1    1    2 1
     2    1   21 1
     3    1   22 1
     4    1   23 1
     5    2    3 1
     6    2    4 1
     7    2   12 1
     8    4    9 ar
     9    4    5 ar
    10    5    6 ar
    11    5   24 1
    12    6    7 ar
    13    6   25 1
    14    7    8 ar
    15    7   10 1
    16    8    9 ar
    17    8   26 1
    18    9   27 1
    19   10   11 1
    20   11   28 1
    21   11   29 1
    22   11   30 1
    23   12   13 1
    24   12   31 1
    25   13   18 ar
    26   13   14 ar
    27   14   15 ar
    28   14   32 1
    29   15   16 ar
    30   15   33 1
    31   16   17 ar
    32   16   34 1
    33   17   18 ar
    34   17   35 1
    35   18   19 1
    36   19   20 1
    37   20   36 1
    38   20   37 1
    39   20   38 1
@<TRIPOS>MOLECULE
ZINC37199954
   47    48     0     0     0
SMALL
USER_CHARGES

@<TRIPOS>ATOM
      1 C1         -0.0187    1.5258    0.0104 C.3       1 <0>        -0.1636
      2 C2          0.0021   -0.0041    0.0020 C.3       1 <0>         0.1988
      3 H1         -1.0205   -0.3814    0.0098 H         1 <0>         0.0826
      4 C3          0.7309   -0.5033    1.2229 C.ar      1 <0>        -0.1510
      5 C4          2.1136   -0.5131    1.2450 C.ar      1 <0>        -0.0625
      6 C5          2.7847   -0.9699    2.3622 C.ar      1 <0>        -0.1949
      7 C6          2.0692   -1.4199    3.4646 C.ar      1 <0>         0.2163
      8 C7          0.6804   -1.4087    3.4391 C.ar      1 <0>        -0.1944
      9 C8          0.0156   -0.9452    2.3208 C.ar      1 <0>        -0.0588
     10 N1          2.7448   -1.8830    4.5960 N.pl3     1 <0>        -0.6385
     11 C9          4.2095   -1.8946    4.6210 C.3       1 <0>         0.0917
     12 C10         1.9886   -2.3572    5.7577 C.3       1 <0>         0.0916
     13 N2          0.6878   -0.4765   -1.2033 N.pl3     1 <0>        -0.7419
     14 C11        -0.0186   -0.6129   -2.4005 C.ar      1 <0>         0.2163
     15 C12        -1.3700   -0.2956   -2.4515 C.ar      1 <0>        -0.1972
     16 C13        -2.0653   -0.4311   -3.6370 C.ar      1 <0>        -0.0695
     17 C14        -1.4178   -0.8827   -4.7724 C.ar      1 <0>        -0.1366
     18 C15        -0.0726   -1.1995   -4.7252 C.ar      1 <0>        -0.0653
     19 C16         0.6301   -1.0608   -3.5443 C.ar      1 <0>        -0.1954
     20 C17        -2.1801   -1.0303   -6.0640 C.3       1 <0>        -0.0500
     21 C18        -1.5509   -0.1343   -7.1327 C.3       1 <0>        -0.1441
     22 C19        -2.1258   -2.4884   -6.5244 C.3       1 <0>        -0.1442
     23 H2          1.0039    1.9031    0.0027 H         1 <0>         0.0582
     24 H3         -0.5459    1.8868   -0.8726 H         1 <0>         0.0609
     25 H4         -0.5289    1.8773    0.9072 H         1 <0>         0.0641
     26 H5          2.6692   -0.1635    0.3874 H         1 <0>         0.1178
     27 H6          3.8645   -0.9777    2.3787 H         1 <0>         0.1228
     28 H7          0.1211   -1.7582    4.2943 H         1 <0>         0.1238
     29 H8         -1.0641   -0.9321    2.3019 H         1 <0>         0.1223
     30 H9          4.5737   -0.9462    5.0160 H         1 <0>         0.0492
     31 H10         4.5556   -2.7098    5.2564 H         1 <0>         0.0673
     32 H11         4.5890   -2.0364    3.6091 H         1 <0>         0.0689
     33 H12         1.8002   -3.4260    5.6570 H         1 <0>         0.0492
     34 H13         2.5638   -2.1736    6.6652 H         1 <0>         0.0673
     35 H14         1.0392   -1.8247    5.8153 H         1 <0>         0.0694
     36 H15         1.6324   -0.6946   -1.1699 H         1 <0>         0.3969
     37 H16        -1.8764    0.0565   -1.5649 H         1 <0>         0.1197
     38 H17        -3.1160   -0.1846   -3.6773 H         1 <0>         0.1176
     39 H18         0.4301   -1.5519   -5.6137 H         1 <0>         0.1177
     40 H19         1.6817   -1.3041   -3.5092 H         1 <0>         0.1166
     41 H20        -3.2182   -0.7367   -5.9088 H         1 <0>         0.0728
     42 H21        -2.1023   -0.2410   -8.0669 H         1 <0>         0.0548
     43 H22        -1.5896    0.9045   -6.8047 H         1 <0>         0.0545
     44 H23        -0.5128   -0.4279   -7.2879 H         1 <0>         0.0547
     45 H24        -2.5741   -3.1267   -5.7630 H         1 <0>         0.0545
     46 H25        -2.6772   -2.5951   -7.4586 H         1 <0>         0.0548
     47 H26        -1.0877   -2.7820   -6.6796 H         1 <0>         0.0547
@<TRIPOS>BOND
     1    1    2 1
     2    1   23 1
     3    1   24 1
     4    1   25 1
     5    2    3 1
     6    2    4 1
     7    2   13 1
     8    4    9 ar
     9    4    5 ar
    10    5    6 ar
    11    5   26 1
    12    6    7 ar
    13    6   27 1
    14    7    8 ar
    15    7   10 1
    16    8    9 ar
    17    8   28 1
    18    9   29 1
    19   10   11 1
    20   10   12 1
    21   11   30 1
    22   11   31 1
    23   11   32 1
    24   12   33 1
    25   12   34 1
    26   12   35 1
    27   13   14 1
    28   13   36 1
    29   14   19 ar
    30   14   15 ar
    31   15   16 ar
    32   15   37 1
    33   16   17 ar
    34   16   38 1
    35   17   18 ar
    36   17   20 1
    37   18   19 ar
    38   18   39 1
    39   19   40 1
    40   20   21 1
    41   20   22 1
    42   20   41 1
    43   21   42 1
    44   21   43 1
    45   21   44 1
    46   22   45 1
    47   22   46 1
    48   22   47 1
@<TRIPOS>MOLECULE
ZINC43682654
   44    45     0     0     0
SMALL
USER_CHARGES

@<TRIPOS>ATOM
      1 C1         -0.0187    1.5258    0.0104 C.3       1 <0>        -0.1538
      2 C2          0.0021   -0.0041    0.0020 C.3       1 <0>        -0.1169
      3 C3          0.7182   -0.4975   -1.2568 C.3       1 <0>        -0.0803
      4 H1          0.2444   -0.0644   -2.1377 H         1 <0>         0.0802
      5 C4          2.1873   -0.0730   -1.2073 C.3       1 <0>        -0.1117
      6 C5          2.9035   -0.5664   -2.4661 C.3       1 <0>        -0.1194
      7 C6          2.8156   -2.0922   -2.5379 C.3       1 <0>        -0.1143
      8 C7          1.3465   -2.5167   -2.5874 C.3       1 <0>        -0.1420
      9 C8          0.6303   -2.0233   -1.3286 C.3       1 <0>         0.0946
     10 H2         -0.4163   -2.3257   -1.3639 H         1 <0>         0.0604
     11 O1          1.2515   -2.5911   -0.1737 O.3       1 <0>        -0.3616
     12 C9          0.6906   -3.8410    0.2327 C.3       1 <0>         0.1460
     13 C10         1.4178   -4.3450    1.4526 C.2       1 <0>        -0.1294
     14 C11         1.1389   -4.1246    2.7747 C.2       1 <0>         0.0006
     15 C12         1.9671   -4.7061    3.7324 C.2       1 <0>        -0.1447
     16 C13         3.0102   -5.4626    3.3253 C.2       1 <0>        -0.1655
     17 S1          2.8613   -5.3905    1.5484 S.3       1 <0>         0.0797
     18 C14         0.0233   -3.3156    3.1638 C.1       1 <0>        -0.1193
     19 C15        -0.8914   -2.6523    3.4829 C.1       1 <0>        -0.1540
     20 C16        -2.0382   -1.8207    3.8829 C.3       1 <0>        -0.0047
     21 C17        -2.1076   -1.7480    5.4096 C.3       1 <0>         0.0809
     22 O2         -3.2209   -0.9407    5.7979 O.3       1 <0>        -0.5735
     23 H3          1.0039    1.9031    0.0027 H         1 <0>         0.0564
     24 H4         -0.5459    1.8868   -0.8726 H         1 <0>         0.0520
     25 H5         -0.5289    1.8773    0.9072 H         1 <0>         0.0528
     26 H6          0.5293   -0.3651    0.8851 H         1 <0>         0.0690
     27 H7         -1.0205   -0.3814    0.0098 H         1 <0>         0.0566
     28 H8          2.2499    1.0140   -1.1561 H         1 <0>         0.0622
     29 H9          2.6611   -0.5061   -0.3263 H         1 <0>         0.0701
     30 H10         2.4296   -0.1334   -3.3470 H         1 <0>         0.0584
     31 H11         3.9501   -0.2641   -2.4308 H         1 <0>         0.0609
     32 H12         3.3258   -2.4438   -3.4347 H         1 <0>         0.0583
     33 H13         3.2894   -2.5253   -1.6569 H         1 <0>         0.0691
     34 H14         0.8726   -2.0836   -3.4683 H         1 <0>         0.0717
     35 H15         1.2839   -3.6037   -2.6385 H         1 <0>         0.0623
     36 H16        -0.3649   -3.7060    0.4688 H         1 <0>         0.0713
     37 H17         0.7924   -4.5649   -0.5759 H         1 <0>         0.0663
     38 H18         1.7783   -4.5541    4.7849 H         1 <0>         0.1387
     39 H19         3.7447   -5.9817    3.9231 H         1 <0>         0.1926
     40 H20        -1.9181   -0.8164    3.4764 H         1 <0>         0.0968
     41 H21        -2.9580   -2.2608    3.4979 H         1 <0>         0.0960
     42 H22        -2.2277   -2.7523    5.8160 H         1 <0>         0.0506
     43 H23        -1.1878   -1.3078    5.7946 H         1 <0>         0.0508
     44 H24        -3.3266   -0.8504    6.7549 H         1 <0>         0.3859
@<TRIPOS>BOND
     1    1    2 1
     2    1   23 1
     3    1   24 1
     4    1   25 1
     5    2    3 1
     6    2   26 1
     7    2   27 1
     8    3    4 1
     9    3    9 1
    10    3    5 1
    11    5    6 1
    12    5   28 1
    13    5   29 1
    14    6    7 1
    15    6   30 1
    16    6   31 1
    17    7    8 1
    18    7   32 1
    19    7   33 1
    20    8    9 1
    21    8   34 1
    22    8   35 1
    23    9   10 1
    24    9   11 1
    25   11   12 1
    26   12   13 1
    27   12   36 1
    28   12   37 1
    29   13   17 1
    30   13   14 2
    31   14   15 1
    32   14   18 1
    33   15   16 2
    34   15   38 1
    35   16   17 1
    36   16   39 1
    37   18   19 3
    38   19   20 1
    39   20   21 1
    40   20   40 1
    41   20   41 1
    42   21   22 1
    43   21   42 1
    44   21   43 1
    45   22   44 1
@<TRIPOS>MOLECULE
ZINC53433337
   41    42     0     0     0
SMALL
USER_CHARGES

@<TRIPOS>ATOM
      1 C1         -0.0184    1.5028    0.0103 C.3       1 <0>        -0.1053
      2 C2          0.0021   -0.0041    0.0020 C.ar      1 <0>        -0.1643
      3 C3          0.0057   -0.6889   -1.1975 C.ar      1 <0>        -0.0743
      4 C4          0.0240   -2.0714   -1.2060 C.ar      1 <0>        -0.1760
      5 C5          0.0391   -2.7733   -0.0143 C.ar      1 <0>        -0.0778
      6 C6          0.0360   -2.0949    1.1884 C.ar      1 <0>        -0.1941
      7 C7          0.0230   -0.7057    1.2005 C.ar      1 <0>         0.2171
      8 N1          0.0251   -0.0163    2.4152 N.pl3     1 <0>        -0.7475
      9 C8          0.0472   -0.7580    3.6784 C.3       1 <0>         0.1041
     10 C9          0.0448    0.2276    4.8486 C.3       1 <0>         0.1387
     11 N2          0.0669   -0.5141    6.1118 N.pl3     1 <0>        -0.6735
     12 C10         1.3465   -0.8677    6.7314 C.3       1 <0>         0.1147
     13 C11        -1.1320   -0.8841    6.7254 C.ar      1 <0>         0.1629
     14 C12        -1.7183   -2.1078    6.4268 C.ar      1 <0>        -0.1221
     15 C13        -2.9034   -2.4707    7.0355 C.ar      1 <0>        -0.1197
     16 C14        -3.5069   -1.6174    7.9414 C.ar      1 <0>        -0.1189
     17 C15        -2.9264   -0.3988    8.2406 C.ar      1 <0>        -0.1162
     18 C16        -1.7378   -0.0322    7.6399 C.ar      1 <0>        -0.0916
     19 C17        -1.1023    1.2934    7.9716 C.3       1 <0>        -0.1085
     20 H1          1.0042    1.8801    0.0026 H         1 <0>         0.0649
     21 H2         -0.5455    1.8639   -0.8728 H         1 <0>         0.0667
     22 H3         -0.5286    1.8543    0.9071 H         1 <0>         0.0569
     23 H4         -0.0060   -0.1439   -2.1298 H         1 <0>         0.1198
     24 H5          0.0261   -2.6044   -2.1453 H         1 <0>         0.1175
     25 H6          0.0529   -3.8531   -0.0245 H         1 <0>         0.1188
     26 H7          0.0474   -2.6436    2.1185 H         1 <0>         0.1178
     27 H8          0.0120    0.9536    2.4225 H         1 <0>         0.3980
     28 H9         -0.8336   -1.3971    3.7399 H         1 <0>         0.0585
     29 H10         0.9461   -1.3729    3.7230 H         1 <0>         0.0582
     30 H11         0.9257    0.8667    4.7872 H         1 <0>         0.0718
     31 H12        -0.8541    0.8425    4.8040 H         1 <0>         0.0681
     32 H13         1.6567   -0.0693    7.4055 H         1 <0>         0.0371
     33 H14         1.2341   -1.7947    7.2936 H         1 <0>         0.0567
     34 H15         2.1007   -1.0022    5.9561 H         1 <0>         0.0585
     35 H16        -1.2479   -2.7742    5.7190 H         1 <0>         0.1199
     36 H17        -3.3596   -3.4217    6.8038 H         1 <0>         0.1219
     37 H18        -4.4339   -1.9036    8.4159 H         1 <0>         0.1221
     38 H19        -3.4006    0.2655    8.9479 H         1 <0>         0.1220
     39 H20        -1.4763    2.0566    7.2891 H         1 <0>         0.0658
     40 H21        -1.3509    1.5692    8.9964 H         1 <0>         0.0624
     41 H22        -0.0201    1.2133    7.8693 H         1 <0>         0.0689
@<TRIPOS>BOND
     1    1    2 1
     2    1   20 1
     3    1   21 1
     4    1   22 1
     5    2    7 ar
     6    2    3 ar
     7    3    4 ar
     8    3   23 1
     9    4    5 ar
    10    4   24 1
    11    5    6 ar
    12    5   25 1
    13    6    7 ar
    14    6   26 1
    15    7    8 1
    16    8    9 1
    17    8   27 1
    18    9   10 1
    19    9   28 1
    20    9   29 1
    21   10   11 1
    22   10   30 1
    23   10   31 1
    24   11   12 1
    25   11   13 1
    26   12   32 1
    27   12   33 1
    28   12   34 1
    29   13   18 ar
    30   13   14 ar
    31   14   15 ar
    32   14   35 1
    33   15   16 ar
    34   15   36 1
    35   16   17 ar
    36   16   37 1
    37   17   18 ar
    38   17   38 1
    39   18   19 1
    40   19   39 1
    41   19   40 1
    42   19   41 1
@<TRIPOS>MOLECULE
ZINC32132527
   44    45     0     0     0
SMALL
USER_CHARGES
N-[(2-isobutoxyphenyl)methyl]-4-methoxy-aniline
@<TRIPOS>ATOM
      1 C1          2.8097   -3.4165   -5.0218 C.3       1 <0>        -0.1484
      2 C2          1.4152   -3.9844   -4.7502 C.3       1 <0>        -0.0933
      3 C3          0.9221   -4.7388   -5.9866 C.3       1 <0>        -0.1489
      4 C4          1.4779   -4.9429   -3.5593 C.3       1 <0>         0.0610
      5 O1          1.8259   -4.2151   -2.3799 O.3       1 <0>        -0.3032
      6 C5          1.9246   -4.9235   -1.2243 C.ar      1 <0>         0.1492
      7 C6          1.6916   -6.2913   -1.2257 C.ar      1 <0>        -0.2134
      8 C7          1.7929   -7.0091   -0.0500 C.ar      1 <0>        -0.0711
      9 C8          2.1262   -6.3657    1.1278 C.ar      1 <0>        -0.1606
     10 C9          2.3640   -5.0038    1.1309 C.ar      1 <0>        -0.0621
     11 C10         2.2588   -4.2804   -0.0416 C.ar      1 <0>        -0.1409
     12 C11         2.5130   -2.7950   -0.0366 C.3       1 <0>         0.1831
     13 N1          1.2340   -2.0807   -0.0205 N.pl3     1 <0>        -0.7500
     14 C12         1.2141   -0.6815   -0.0132 C.ar      1 <0>         0.1945
     15 C13         0.0021   -0.0041    0.0020 C.ar      1 <0>        -0.1594
     16 C14        -0.0167    1.3769    0.0096 C.ar      1 <0>        -0.1006
     17 C15         1.1747    2.0871    0.0021 C.ar      1 <0>         0.0624
     18 C16         2.3858    1.4112   -0.0132 C.ar      1 <0>        -0.1561
     19 C17         2.4064    0.0303   -0.0208 C.ar      1 <0>        -0.1650
     20 O2          1.1554    3.4469    0.0091 O.3       1 <0>        -0.3229
     21 C18         2.4192    4.1138    0.0007 C.3       1 <0>         0.0268
     22 H1          3.1642   -2.8741   -4.1329 H         1 <0>         0.0621
     23 H2          2.7646   -2.7274   -5.8780 H         1 <0>         0.0581
     24 H3          3.5028   -4.2397   -5.2497 H         1 <0>         0.0539
     25 H4          0.7221   -3.1612   -4.5222 H         1 <0>         0.0821
     26 H5         -0.0805   -5.1471   -5.7913 H         1 <0>         0.0583
     27 H6          1.6153   -5.5620   -6.2145 H         1 <0>         0.0584
     28 H7          0.8770   -4.0497   -6.8428 H         1 <0>         0.0666
     29 H8          0.4962   -5.4192   -3.4199 H         1 <0>         0.0626
     30 H9          2.2367   -5.7160   -3.7504 H         1 <0>         0.0627
     31 H10         1.4315   -6.7943   -2.1453 H         1 <0>         0.1282
     32 H11         1.6119   -8.0739   -0.0506 H         1 <0>         0.1257
     33 H12         2.2049   -6.9287    2.0461 H         1 <0>         0.1258
     34 H13         2.6282   -4.5043    2.0512 H         1 <0>         0.1301
     35 H14         3.0947   -2.5256    0.8573 H         1 <0>         0.0614
     36 H15         3.0772   -2.5165   -0.9389 H         1 <0>         0.0660
     37 H16         0.2893   -2.6443   -0.0141 H         1 <0>         0.4164
     38 H17        -0.9257   -0.5569    0.0083 H         1 <0>         0.1250
     39 H18        -0.9593    1.9040    0.0169 H         1 <0>         0.1278
     40 H19         3.3130    1.9650   -0.0195 H         1 <0>         0.1243
     41 H20         3.3495   -0.4958   -0.0324 H         1 <0>         0.1203
     42 H21         2.2595    5.2021    0.0076 H         1 <0>         0.0981
     43 H22         2.9771    3.8308   -0.9041 H         1 <0>         0.0524
     44 H23         2.9938    3.8218    0.8921 H         1 <0>         0.0525
@<TRIPOS>BOND
     1    1    2 1
     2    1   22 1
     3    1   23 1
     4    1   24 1
     5    2    3 1
     6    2    4 1
     7    2   25 1
     8    3   26 1
     9    3   27 1
    10    3   28 1
    11    4    5 1
    12    4   29 1
    13    4   30 1
    14    5    6 1
    15    6   11 ar
    16    6    7 ar
    17    7    8 ar
    18    7   31 1
    19    8    9 ar
    20    8   32 1
    21    9   10 ar
    22    9   33 1
    23   10   11 ar
    24   10   34 1
    25   11   12 1
    26   12   13 1
    27   12   35 1
    28   12   36 1
    29   13   14 1
    30   13   37 1
    31   14   19 ar
    32   14   15 ar
    33   15   16 ar
    34   15   38 1
    35   16   17 ar
    36   16   39 1
    37   17   18 ar
    38   17   20 1
    39   18   19 ar
    40   18   40 1
    41   19   41 1
    42   20   21 1
    43   21   42 1
    44   21   43 1
    45   21   44 1
@<TRIPOS>MOLECULE
ZINC37293981
   41    42     0     0     0
SMALL
USER_CHARGES

@<TRIPOS>ATOM
      1 C1         -0.0187    1.5258    0.0104 C.3       1 <0>        -0.1542
      2 C2          0.0021   -0.0041    0.0020 C.3       1 <0>        -0.1254
      3 C3         -1.4333   -0.5336    0.0129 C.3       1 <0>        -0.1192
      4 C4         -1.4126   -2.0635    0.0045 C.3       1 <0>        -0.1276
      5 C5         -2.8479   -2.5931    0.0153 C.3       1 <0>         0.1459
      6 H1         -3.4008   -2.1613   -0.8189 H         1 <0>         0.0804
      7 C6         -2.8303   -4.1171   -0.1188 C.3       1 <0>        -0.1710
      8 N1         -3.4961   -2.2212    1.2754 N.pl3     1 <0>        -0.7380
      9 C7         -4.8869   -2.1089    1.3388 C.ar      1 <0>         0.2285
     10 C8         -5.6553   -2.3558    0.2073 C.ar      1 <0>        -0.1998
     11 C9         -7.0284   -2.2452    0.2675 C.ar      1 <0>        -0.0375
     12 C10        -7.6458   -1.8859    1.4644 C.ar      1 <0>        -0.0801
     13 C11        -6.8733   -1.6392    2.5980 C.ar      1 <0>        -0.0549
     14 C12        -5.5008   -1.7561    2.5347 C.ar      1 <0>        -0.1966
     15 C13        -9.1233   -1.7657    1.5315 C.2       1 <0>         0.0449
     16 C14        -9.8521   -1.4214    2.6210 C.2       1 <0>        -0.0794
     17 O1        -11.1464   -1.4328    2.2474 O.3       1 <0>        -0.2016
     18 C15       -11.2001   -1.7780    0.9540 C.2       1 <0>         0.1945
     19 N2         -9.9907   -1.9737    0.5156 N.2       1 <0>        -0.4806
     20 C16       -12.4589   -1.9123    0.1365 C.3       1 <0>        -0.0584
     21 H2          1.0039    1.9031    0.0027 H         1 <0>         0.0539
     22 H3         -0.5459    1.8868   -0.8726 H         1 <0>         0.0537
     23 H4         -0.5289    1.8773    0.9072 H         1 <0>         0.0532
     24 H5          0.5123   -0.3556   -0.8948 H         1 <0>         0.0610
     25 H6          0.5293   -0.3651    0.8851 H         1 <0>         0.0601
     26 H7         -1.9435   -0.1821    0.9097 H         1 <0>         0.0637
     27 H8         -1.9605   -0.1726   -0.8702 H         1 <0>         0.0620
     28 H9         -0.9024   -2.4150   -0.8923 H         1 <0>         0.0777
     29 H10        -0.8854   -2.4246    0.8875 H         1 <0>         0.0674
     30 H11        -3.8529   -4.4944   -0.1110 H         1 <0>         0.0604
     31 H12        -2.3480   -4.3938   -1.0563 H         1 <0>         0.0642
     32 H13        -2.2774   -4.5488    0.7155 H         1 <0>         0.0580
     33 H14        -2.9595   -2.0529    2.0657 H         1 <0>         0.3987
     34 H15        -5.1766   -2.6342   -0.7199 H         1 <0>         0.1244
     35 H16        -7.6251   -2.4364   -0.6121 H         1 <0>         0.1288
     36 H17        -7.3497   -1.3607    3.5264 H         1 <0>         0.1212
     37 H18        -4.9022   -1.5690    3.4139 H         1 <0>         0.1231
     38 H19        -9.4684   -1.1832    3.6021 H         1 <0>         0.2151
     39 H20       -13.3233   -1.6845    0.7602 H         1 <0>         0.0885
     40 H21       -12.4231   -1.2176   -0.7026 H         1 <0>         0.0975
     41 H22       -12.5409   -2.9322   -0.2394 H         1 <0>         0.0975
@<TRIPOS>BOND
     1    1    2 1
     2    1   21 1
     3    1   22 1
     4    1   23 1
     5    2    3 1
     6    2   24 1
     7    2   25 1
     8    3    4 1
     9    3   26 1
    10    3   27 1
    11    4    5 1
    12    4   28 1
    13    4   29 1
    14    5    6 1
    15    5    7 1
    16    5    8 1
    17    7   30 1
    18    7   31 1
    19    7   32 1
    20    8    9 1
    21    8   33 1
    22    9   14 ar
    23    9   10 ar
    24   10   11 ar
    25   10   34 1
    26   11   12 ar
    27   11   35 1
    28   12   13 ar
    29   12   15 1
    30   13   14 ar
    31   13   36 1
    32   14   37 1
    33   15   19 1
    34   15   16 2
    35   16   17 1
    36   16   38 1
    37   17   18 1
    38   18   19 2
    39   18   20 1
    40   20   39 1
    41   20   40 1
    42   20   41 1
@<TRIPOS>MOLECULE
ZINC37126217
   44    45     0     0     0
SMALL
USER_CHARGES

@<TRIPOS>ATOM
      1 C1          0.1474    1.5231    0.1007 C.3       1 <0>        -0.1647
      2 C2         -0.0488    0.0117   -0.0330 C.3       1 <0>         0.1924
      3 H1         -1.1121   -0.2101   -0.1238 H         1 <0>         0.0882
      4 C3          0.5055   -0.6767    1.1877 C.ar      1 <0>        -0.0507
      5 C4          1.8667   -0.8926    1.3007 C.ar      1 <0>        -0.1487
      6 C5          2.3783   -1.5238    2.4192 C.ar      1 <0>        -0.0748
      7 C6          1.5301   -1.9410    3.4270 C.ar      1 <0>        -0.2080
      8 C7          0.1644   -1.7256    3.3160 C.ar      1 <0>         0.1312
      9 C8         -0.3460   -1.0864    2.1951 C.ar      1 <0>        -0.1421
     10 O1         -0.6719   -2.1350    4.3059 O.3       1 <0>        -0.3170
     11 C9         -0.0761   -2.7807    5.4328 C.3       1 <0>         0.0267
     12 N1          0.6537   -0.4684   -1.2256 N.pl3     1 <0>        -0.7370
     13 C10         0.0282   -0.4119   -2.4764 C.ar      1 <0>         0.1963
     14 C11        -1.2547    0.1036   -2.5899 C.ar      1 <0>        -0.1700
     15 C12        -1.8700    0.1588   -3.8263 C.ar      1 <0>        -0.1062
     16 C13        -1.2101   -0.2988   -4.9517 C.ar      1 <0>        -0.1411
     17 C14         0.0689   -0.8140   -4.8463 C.ar      1 <0>        -0.1648
     18 C15         0.6945   -0.8679   -3.6118 C.ar      1 <0>         0.0586
     19 O2          1.9545   -1.3695   -3.5074 O.3       1 <0>        -0.3162
     20 C16         2.5285   -1.9326   -4.6887 C.3       1 <0>         0.0817
     21 C17         3.1663   -0.8215   -5.5252 C.3       1 <0>        -0.1804
     22 C18         3.5978   -2.9550   -4.2987 C.3       1 <0>        -0.1492
     23 H2          1.2108    1.7449    0.1915 H         1 <0>         0.0611
     24 H3         -0.2535    2.0210   -0.7822 H         1 <0>         0.0654
     25 H4         -0.3752    1.8803    0.9880 H         1 <0>         0.0664
     26 H5          2.5312   -0.5679    0.5137 H         1 <0>         0.1227
     27 H6          3.4417   -1.6913    2.5052 H         1 <0>         0.1268
     28 H7          1.9302   -2.4347    4.3003 H         1 <0>         0.1288
     29 H8         -1.4085   -0.9133    2.1085 H         1 <0>         0.1324
     30 H9         -0.8527   -3.0557    6.1466 H         1 <0>         0.1018
     31 H10         0.4479   -3.6776    5.1026 H         1 <0>         0.0561
     32 H11         0.6309   -2.1014    5.9090 H         1 <0>         0.0563
     33 H12         1.5523   -0.8254   -1.1483 H         1 <0>         0.4044
     34 H13        -1.7726    0.4614   -1.7123 H         1 <0>         0.1275
     35 H14        -2.8690    0.5600   -3.9135 H         1 <0>         0.1217
     36 H15        -1.6948   -0.2541   -5.9158 H         1 <0>         0.1198
     37 H16         0.5816   -1.1706   -5.7274 H         1 <0>         0.1273
     38 H17         1.7503   -2.4251   -5.2716 H         1 <0>         0.0716
     39 H18         2.4045   -0.0931   -5.8031 H         1 <0>         0.0630
     40 H19         3.9445   -0.3290   -4.9423 H         1 <0>         0.0661
     41 H20         3.6041   -1.2510   -6.4263 H         1 <0>         0.0705
     42 H21         3.1435   -3.7465   -3.7027 H         1 <0>         0.0639
     43 H22         4.0357   -3.3845   -5.1997 H         1 <0>         0.0762
     44 H23         4.3760   -2.4625   -3.7157 H         1 <0>         0.0658
@<TRIPOS>BOND
     1    1    2 1
     2    1   23 1
     3    1   24 1
     4    1   25 1
     5    2    3 1
     6    2    4 1
     7    2   12 1
     8    4    9 ar
     9    4    5 ar
    10    5    6 ar
    11    5   26 1
    12    6    7 ar
    13    6   27 1
    14    7    8 ar
    15    7   28 1
    16    8    9 ar
    17    8   10 1
    18    9   29 1
    19   10   11 1
    20   11   30 1
    21   11   31 1
    22   11   32 1
    23   12   13 1
    24   12   33 1
    25   13   18 ar
    26   13   14 ar
    27   14   15 ar
    28   14   34 1
    29   15   16 ar
    30   15   35 1
    31   16   17 ar
    32   16   36 1
    33   17   18 ar
    34   17   37 1
    35   18   19 1
    36   19   20 1
    37   20   21 1
    38   20   22 1
    39   20   38 1
    40   21   39 1
    41   21   40 1
    42   21   41 1
    43   22   42 1
    44   22   43 1
    45   22   44 1
@<TRIPOS>MOLECULE
ZINC52250301
   46    46     0     0     0
SMALL
USER_CHARGES

@<TRIPOS>ATOM
      1 C1         -2.5411    0.9119   -2.2479 C.3       1 <0>        -0.1610
      2 C2         -1.9898   -0.5067   -2.0909 C.3       1 <0>        -0.1104
      3 C3         -1.6254   -0.7528   -0.6254 C.3       1 <0>        -0.1079
      4 H1         -0.9232    0.0114   -0.2923 H         1 <0>         0.1122
      5 C4         -2.8719   -0.6921    0.2192 C.2       1 <0>         0.4734
      6 O1         -3.3883   -1.7128    0.6085 O.2       1 <0>        -0.5022
      7 O2         -3.4087    0.4959    0.5392 O.3       1 <0>        -0.3465
      8 C5         -4.6504    0.4775    1.2462 C.3       1 <0>         0.0589
      9 C6         -5.1609    1.9096    1.4177 C.3       1 <0>        -0.1527
     10 C7         -0.9810   -2.1334   -0.4851 C.3       1 <0>         0.1975
     11 C8          0.3650   -2.1443   -1.2125 C.3       1 <0>        -0.0972
     12 C9          1.0586   -3.4883   -0.9817 C.3       1 <0>        -0.0909
     13 C10         0.2457   -4.6022   -1.6445 C.3       1 <0>        -0.1405
     14 C11         2.4617   -3.4494   -1.5906 C.3       1 <0>        -0.1487
     15 C12        -0.7658   -2.4413    0.9743 C.ar      1 <0>        -0.1054
     16 C13        -0.0667   -1.5548    1.7720 C.ar      1 <0>        -0.1202
     17 C14         0.1306   -1.8373    3.1107 C.ar      1 <0>        -0.1201
     18 C15        -0.3714   -3.0060    3.6518 C.ar      1 <0>        -0.1199
     19 C16        -1.0713   -3.8921    2.8544 C.ar      1 <0>        -0.1197
     20 C17        -1.2723   -3.6076    1.5166 C.ar      1 <0>        -0.0872
     21 O3         -1.8403   -3.1207   -1.0586 O.3       1 <0>        -0.5418
     22 H2         -2.8007    1.0873   -3.2919 H         1 <0>         0.0605
     23 H3         -3.4303    1.0268   -1.6282 H         1 <0>         0.0615
     24 H4         -1.7850    1.6322   -1.9356 H         1 <0>         0.0592
     25 H5         -2.7459   -1.2270   -2.4031 H         1 <0>         0.0759
     26 H6         -1.1006   -0.6216   -2.7106 H         1 <0>         0.0858
     27 H7         -5.3806   -0.1035    0.6830 H         1 <0>         0.0675
     28 H8         -4.5036    0.0243    2.2266 H         1 <0>         0.0674
     29 H9         -6.1080    1.8956    1.9570 H         1 <0>         0.0800
     30 H10        -4.4306    2.4906    1.9809 H         1 <0>         0.0670
     31 H11        -5.3077    2.3628    0.4373 H         1 <0>         0.0667
     32 H12         0.2021   -1.9981   -2.2803 H         1 <0>         0.0794
     33 H13         0.9926   -1.3406   -0.8273 H         1 <0>         0.0763
     34 H14         1.1323   -3.6801    0.0888 H         1 <0>         0.0702
     35 H15         0.8492   -5.5081   -1.7011 H         1 <0>         0.0412
     36 H16        -0.6499   -4.7985   -1.0550 H         1 <0>         0.0722
     37 H17        -0.0414   -4.2936   -2.6497 H         1 <0>         0.0518
     38 H18         3.0408   -2.6559   -1.1184 H         1 <0>         0.0515
     39 H19         2.9558   -4.4070   -1.4262 H         1 <0>         0.0545
     40 H20         2.3880   -3.2577   -2.6611 H         1 <0>         0.0540
     41 H21         0.3255   -0.6417    1.3492 H         1 <0>         0.1181
     42 H22         0.6774   -1.1450    3.7338 H         1 <0>         0.1210
     43 H23        -0.2166   -3.2270    4.6976 H         1 <0>         0.1201
     44 H24        -1.4632   -4.8054    3.2771 H         1 <0>         0.1210
     45 H25        -1.8223   -4.2981    0.8944 H         1 <0>         0.1263
     46 H26        -2.7133   -3.1700   -0.6456 H         1 <0>         0.3812
@<TRIPOS>BOND
     1    1    2 1
     2    1   22 1
     3    1   23 1
     4    1   24 1
     5    2    3 1
     6    2   25 1
     7    2   26 1
     8    3    4 1
     9    3    5 1
    10    3   10 1
    11    5    6 2
    12    5    7 1
    13    7    8 1
    14    8    9 1
    15    8   27 1
    16    8   28 1
    17    9   29 1
    18    9   30 1
    19    9   31 1
    20   10   11 1
    21   10   15 1
    22   10   21 1
    23   11   12 1
    24   11   32 1
    25   11   33 1
    26   12   13 1
    27   12   14 1
    28   12   34 1
    29   13   35 1
    30   13   36 1
    31   13   37 1
    32   14   38 1
    33   14   39 1
    34   14   40 1
    35   15   20 ar
    36   15   16 ar
    37   16   17 ar
    38   16   41 1
    39   17   18 ar
    40   17   42 1
    41   18   19 ar
    42   18   43 1
    43   19   20 ar
    44   19   44 1
    45   20   45 1
    46   21   46 1
@<TRIPOS>MOLECULE
ZINC62171522
   44    45     0     0     0
SMALL
USER_CHARGES

@<TRIPOS>ATOM
      1 C1         -0.0187    1.5258    0.0104 C.3       1 <0>        -0.1708
      2 C2          0.0021   -0.0041    0.0020 C.3       1 <0>         0.1560
      3 H1          0.5293   -0.3651    0.8851 H         1 <0>         0.0797
      4 C3         -1.4333   -0.5336    0.0129 C.3       1 <0>        -0.0896
      5 C4         -1.4136   -2.0361    0.1285 C.ar      1 <0>        -0.0794
      6 C5         -1.3741   -2.8166   -1.0118 C.ar      1 <0>        -0.1106
      7 C6         -1.3560   -4.1947   -0.9058 C.ar      1 <0>        -0.1174
      8 C7         -1.3769   -4.7924    0.3405 C.ar      1 <0>        -0.1235
      9 C8         -1.4154   -4.0119    1.4808 C.ar      1 <0>        -0.1171
     10 C9         -1.4292   -2.6337    1.3749 C.ar      1 <0>        -0.1178
     11 N1          0.6878   -0.4765   -1.2033 N.pl3     1 <0>        -0.7415
     12 C10         2.0824   -0.5912   -1.2154 C.ar      1 <0>         0.1885
     13 C11         2.8163   -0.2628   -0.0832 C.ar      1 <0>        -0.1584
     14 C12         4.1926   -0.3767   -0.0959 C.ar      1 <0>        -0.1017
     15 C13         4.8418   -0.8190   -1.2389 C.ar      1 <0>         0.0719
     16 C14         4.1096   -1.1469   -2.3704 C.ar      1 <0>        -0.1594
     17 C15         2.7328   -1.0390   -2.3576 C.ar      1 <0>        -0.1575
     18 O1          6.1972   -0.9309   -1.2505 O.3       1 <0>        -0.3110
     19 C16         6.7997   -1.3926   -2.4612 C.3       1 <0>         0.0633
     20 C17         8.3182   -1.4532   -2.2844 C.3       1 <0>         0.0619
     21 O2          8.6444   -2.4370   -1.3007 O.3       1 <0>        -0.3846
     22 C18        10.0460   -2.5741   -1.0582 C.3       1 <0>         0.0303
     23 H2          1.0039    1.9031    0.0027 H         1 <0>         0.0618
     24 H3         -0.5459    1.8868   -0.8726 H         1 <0>         0.0586
     25 H4         -0.5289    1.8773    0.9072 H         1 <0>         0.0639
     26 H5         -1.9701   -0.1109    0.8621 H         1 <0>         0.0875
     27 H6         -1.9334   -0.2470   -0.9122 H         1 <0>         0.0773
     28 H7         -1.3577   -2.3496   -1.9855 H         1 <0>         0.1159
     29 H8         -1.3258   -4.8045   -1.7967 H         1 <0>         0.1202
     30 H9         -1.3634   -5.8691    0.4233 H         1 <0>         0.1203
     31 H10        -1.4321   -4.4789    2.4545 H         1 <0>         0.1212
     32 H11        -1.4556   -2.0238    2.2658 H         1 <0>         0.1205
     33 H12         0.1751   -0.7099   -1.9930 H         1 <0>         0.3956
     34 H13         2.3110    0.0820    0.8068 H         1 <0>         0.1266
     35 H14         4.7636   -0.1209    0.7845 H         1 <0>         0.1280
     36 H15         4.6159   -1.4909   -3.2602 H         1 <0>         0.1243
     37 H16         2.1624   -1.2989   -3.2372 H         1 <0>         0.1201
     38 H17         6.4217   -2.3870   -2.6990 H         1 <0>         0.0685
     39 H18         6.5555   -0.7074   -3.2730 H         1 <0>         0.0750
     40 H19         8.7842   -1.7195   -3.2331 H         1 <0>         0.0705
     41 H20         8.6853   -0.4794   -1.9601 H         1 <0>         0.0611
     42 H21        10.2104   -3.3396   -0.2998 H         1 <0>         0.0878
     43 H22        10.5478   -2.8638   -1.9815 H         1 <0>         0.0415
     44 H23        10.4489   -1.6237   -0.7085 H         1 <0>         0.0429
@<TRIPOS>BOND
     1    1    2 1
     2    1   23 1
     3    1   24 1
     4    1   25 1
     5    2    3 1
     6    2    4 1
     7    2   11 1
     8    4    5 1
     9    4   26 1
    10    4   27 1
    11    5   10 ar
    12    5    6 ar
    13    6    7 ar
    14    6   28 1
    15    7    8 ar
    16    7   29 1
    17    8    9 ar
    18    8   30 1
    19    9   10 ar
    20    9   31 1
    21   10   32 1
    22   11   12 1
    23   11   33 1
    24   12   17 ar
    25   12   13 ar
    26   13   14 ar
    27   13   34 1
    28   14   15 ar
    29   14   35 1
    30   15   16 ar
    31   15   18 1
    32   16   17 ar
    33   16   36 1
    34   17   37 1
    35   18   19 1
    36   19   20 1
    37   19   38 1
    38   19   39 1
    39   20   21 1
    40   20   40 1
    41   20   41 1
    42   21   22 1
    43   22   42 1
    44   22   43 1
    45   22   44 1
@<TRIPOS>MOLECULE
ZINC20135155
   45    46     0     0     0
SMALL
USER_CHARGES
1,3,5-trimethyl-N-[(1S)-3-methyl-1-phenyl-butyl]pyrazol-4-amine
@<TRIPOS>ATOM
      1 C1         -1.5194   -3.1701    0.3651 C.3       1 <0>        -0.0728
      2 C2         -0.3692   -4.1435    0.3910 C.2       1 <0>         0.0611
      3 C3          0.9747   -3.8326    0.1393 C.2       1 <0>         0.0349
      4 C4          1.6968   -4.9747    0.2648 C.2       1 <0>         0.0645
      5 N1          0.8312   -5.9744    0.5809 N.pl3     1 <0>        -0.3779
      6 N2         -0.4548   -5.4235    0.6495 N.2       1 <0>        -0.2943
      7 C5          1.1814   -7.3784    0.8097 C.3       1 <0>         0.1022
      8 C6          3.1870   -5.1104    0.0858 C.3       1 <0>        -0.0852
      9 N3          1.4852   -2.5601   -0.1810 N.pl3     1 <0>        -0.7584
     10 C7          1.0982   -2.1648   -1.5418 C.3       1 <0>         0.1967
     11 H1          0.1373   -2.6491   -1.7700 H         1 <0>         0.0801
     12 C8          0.9748   -0.6415   -1.6148 C.3       1 <0>        -0.1158
     13 C9          0.4469   -0.2380   -2.9929 C.3       1 <0>        -0.0955
     14 C10         0.4277    1.2878   -3.1051 C.3       1 <0>        -0.1482
     15 C11        -0.9721   -0.7806   -3.1744 C.3       1 <0>        -0.1517
     16 C12         2.1474   -2.6311   -2.5179 C.ar      1 <0>        -0.0833
     17 C13         3.4871   -2.5361   -2.1904 C.ar      1 <0>        -0.1015
     18 C14         4.4494   -2.9679   -3.0840 C.ar      1 <0>        -0.1242
     19 C15         4.0723   -3.4858   -4.3089 C.ar      1 <0>        -0.1269
     20 C16         2.7329   -3.5763   -4.6384 C.ar      1 <0>        -0.1206
     21 C17         1.7704   -3.1485   -3.7430 C.ar      1 <0>        -0.1167
     22 H2         -1.1443   -2.1657    0.1190 H         1 <0>         0.0788
     23 H3         -2.0040   -3.1488    1.3524 H         1 <0>         0.0718
     24 H4         -2.2494   -3.4853   -0.3950 H         1 <0>         0.0700
     25 H5          0.2716   -7.9492    1.0473 H         1 <0>         0.0948
     26 H6          1.8878   -7.4478    1.6501 H         1 <0>         0.0770
     27 H7          1.6478   -7.7923   -0.0965 H         1 <0>         0.0764
     28 H8          3.4824   -6.1570    0.2514 H         1 <0>         0.0618
     29 H9          3.7037   -4.4644    0.8109 H         1 <0>         0.0781
     30 H10         3.4626   -4.8088   -0.9355 H         1 <0>         0.0844
     31 H11         2.0964   -1.8843    0.4352 H         1 <0>         0.4207
     32 H12         0.2779   -0.2925   -0.8386 H         1 <0>         0.0711
     33 H13         1.9626   -0.1854   -1.4526 H         1 <0>         0.0652
     34 H14         1.1014   -0.6548   -3.7726 H         1 <0>         0.0736
     35 H15         0.0481    1.5778   -4.0960 H         1 <0>         0.0540
     36 H16         1.4479    1.6779   -2.9746 H         1 <0>         0.0531
     37 H17        -0.2267    1.7046   -2.3253 H         1 <0>         0.0542
     38 H18        -1.3516   -0.4905   -4.1653 H         1 <0>         0.0536
     39 H19        -1.6265   -0.3639   -2.3946 H         1 <0>         0.0557
     40 H20        -0.9583   -1.8776   -3.0938 H         1 <0>         0.0551
     41 H21         3.7818   -2.1277   -1.2350 H         1 <0>         0.1174
     42 H22         5.4958   -2.8974   -2.8264 H         1 <0>         0.1171
     43 H23         4.8243   -3.8200   -5.0084 H         1 <0>         0.1168
     44 H24         2.4383   -3.9809   -5.5954 H         1 <0>         0.1173
     45 H25         0.7240   -3.2190   -4.0006 H         1 <0>         0.1155
@<TRIPOS>BOND
     1    1    2 1
     2    1   22 1
     3    1   23 1
     4    1   24 1
     5    2    6 2
     6    2    3 1
     7    3    4 2
     8    3    9 1
     9    4    5 1
    10    4    8 1
    11    5    6 1
    12    5    7 1
    13    7   25 1
    14    7   26 1
    15    7   27 1
    16    8   28 1
    17    8   29 1
    18    8   30 1
    19    9   10 1
    20    9   31 1
    21   10   11 1
    22   10   12 1
    23   10   16 1
    24   12   13 1
    25   12   32 1
    26   12   33 1
    27   13   14 1
    28   13   15 1
    29   13   34 1
    30   14   35 1
    31   14   36 1
    32   14   37 1
    33   15   38 1
    34   15   39 1
    35   15   40 1
    36   16   21 ar
    37   16   17 ar
    38   17   18 ar
    39   17   41 1
    40   18   19 ar
    41   18   42 1
    42   19   20 ar
    43   19   43 1
    44   20   21 ar
    45   20   44 1
    46   21   45 1
@<TRIPOS>MOLECULE
ZINC37281495
   35    36     0     0     0
SMALL
USER_CHARGES

@<TRIPOS>ATOM
      1 C1         -0.0187    1.5258    0.0104 C.3       1 <0>        -0.1543
      2 C2          0.0021   -0.0041    0.0020 C.3       1 <0>        -0.1252
      3 C3          0.7182   -0.4975   -1.2568 C.3       1 <0>        -0.1206
      4 C4          0.7390   -2.0273   -1.2652 C.3       1 <0>        -0.1278
      5 C5          1.4551   -2.5207   -2.5240 C.3       1 <0>         0.1438
      6 H1          2.4472   -2.0723   -2.5770 H         1 <0>         0.0827
      7 C6          1.5861   -4.0442   -2.4722 C.3       1 <0>        -0.1720
      8 N1          0.6820   -2.1371   -3.7078 N.pl3     1 <0>        -0.7278
      9 C7          1.3218   -1.9899   -4.9443 C.ar      1 <0>         0.2489
     10 C8          2.6879   -2.2130   -5.0500 C.ar      1 <0>        -0.1745
     11 C9          3.3203   -2.0676   -6.2735 C.ar      1 <0>         0.0928
     12 C10         2.5841   -1.6976   -7.3964 C.ar      1 <0>        -0.0203
     13 C11         1.2210   -1.4762   -7.2878 C.ar      1 <0>        -0.0402
     14 C12         0.5889   -1.6261   -6.0668 C.ar      1 <0>        -0.1129
     15 Cl1        -1.1206   -1.3536   -5.9358 Cl        1 <0>        -0.0562
     16 O1          3.4297   -1.6228   -8.4670 O.3       1 <0>        -0.3062
     17 C13         4.7539   -1.5513   -7.9062 C.3       1 <0>         0.2140
     18 O2          4.6261   -2.2247   -6.6401 O.3       1 <0>        -0.3062
     19 H2          1.0039    1.9031    0.0027 H         1 <0>         0.0535
     20 H3         -0.5459    1.8868   -0.8726 H         1 <0>         0.0536
     21 H4         -0.5289    1.8773    0.9072 H         1 <0>         0.0540
     22 H5          0.5293   -0.3651    0.8851 H         1 <0>         0.0612
     23 H6         -1.0205   -0.3814    0.0098 H         1 <0>         0.0606
     24 H7          0.1910   -0.1364   -2.1398 H         1 <0>         0.0644
     25 H8          1.7408   -0.1202   -1.2645 H         1 <0>         0.0626
     26 H9          1.2661   -2.3884   -0.3821 H         1 <0>         0.0804
     27 H10        -0.2836   -2.4046   -1.2575 H         1 <0>         0.0691
     28 H11         0.5941   -4.4927   -2.4192 H         1 <0>         0.0606
     29 H12         2.0963   -4.3958   -3.3689 H         1 <0>         0.0608
     30 H13         2.1614   -4.3297   -1.5914 H         1 <0>         0.0670
     31 H14        -0.2733   -1.9851   -3.6348 H         1 <0>         0.4059
     32 H15         3.2574   -2.4994   -4.1783 H         1 <0>         0.1443
     33 H16         0.6504   -1.1890   -8.1586 H         1 <0>         0.1452
     34 H17         5.4689   -2.0695   -8.5452 H         1 <0>         0.1332
     35 H18         5.0521   -0.5132   -7.7595 H         1 <0>         0.0857
@<TRIPOS>BOND
     1    1    2 1
     2    1   19 1
     3    1   20 1
     4    1   21 1
     5    2    3 1
     6    2   22 1
     7    2   23 1
     8    3    4 1
     9    3   24 1
    10    3   25 1
    11    4    5 1
    12    4   26 1
    13    4   27 1
    14    5    6 1
    15    5    7 1
    16    5    8 1
    17    7   28 1
    18    7   29 1
    19    7   30 1
    20    8    9 1
    21    8   31 1
    22    9   14 ar
    23    9   10 ar
    24   10   11 ar
    25   10   32 1
    26   11   18 1
    27   11   12 ar
    28   12   13 ar
    29   12   16 1
    30   13   14 ar
    31   13   33 1
    32   14   15 1
    33   16   17 1
    34   17   18 1
    35   17   34 1
    36   17   35 1
@<TRIPOS>MOLECULE
ZINC41839046
   45    46     0     0     0
SMALL
USER_CHARGES

@<TRIPOS>ATOM
      1 C1         -0.6116    1.9332   -1.8388 C.3       1 <0>        -0.1469
      2 C2         -0.5777    0.4206   -2.0668 C.3       1 <0>        -0.0886
      3 C3         -1.8602   -0.1918   -1.5658 C.ar      1 <0>        -0.0742
      4 C4         -1.9560   -0.6193   -0.2547 C.ar      1 <0>        -0.1081
      5 C5         -3.1325   -1.1811    0.2049 C.ar      1 <0>        -0.0760
      6 C6         -4.2133   -1.3150   -0.6465 C.ar      1 <0>        -0.0880
      7 C7         -4.1177   -0.8867   -1.9573 C.ar      1 <0>        -0.1482
      8 C8         -2.9427   -0.3210   -2.4157 C.ar      1 <0>        -0.1112
      9 C9         -5.4955   -1.9284   -0.1457 C.3       1 <0>         0.0309
     10 C10        -6.1519   -0.9848    0.8641 C.3       1 <0>        -0.1244
     11 C11        -6.4112    0.3701    0.2023 C.3       1 <0>        -0.1684
     12 C12        -5.1952   -3.2466    0.5201 C.2       1 <0>         0.5079
     13 O1         -4.5225   -3.2769    1.5365 O.co2     1 <0>        -0.6258
     14 O2         -5.6251   -4.2827    0.0424 O.co2     1 <0>        -0.6576
     15 N1         -6.4077   -2.1473   -1.2761 N.4       1 <0>        -0.3617
     16 C13        -5.7598   -3.0090   -2.2977 C.3       1 <0>        -0.0244
     17 C14        -6.9613   -3.5921   -3.0832 C.3       1 <0>        -0.1372
     18 C15        -8.0170   -3.8244   -1.9780 C.3       1 <0>        -0.1235
     19 C16        -7.6076   -2.8865   -0.8273 C.3       1 <0>         0.0206
     20 H1         -7.3726   -3.4708    0.0623 H         1 <0>         0.1639
     21 C17        -8.7421   -1.9050   -0.5262 C.3       1 <0>        -0.1862
     22 H2          0.3160    2.3762   -2.2012 H         1 <0>         0.0599
     23 H3         -1.4550    2.3632   -2.3791 H         1 <0>         0.0546
     24 H4         -0.7201    2.1377   -0.7737 H         1 <0>         0.0567
     25 H5         -0.4692    0.2161   -3.1320 H         1 <0>         0.0728
     26 H6          0.2657   -0.0094   -1.5266 H         1 <0>         0.0748
     27 H7         -1.1116   -0.5146    0.4105 H         1 <0>         0.1282
     28 H8         -3.2071   -1.5156    1.2291 H         1 <0>         0.1494
     29 H9         -4.9620   -0.9917   -2.6226 H         1 <0>         0.1157
     30 H10        -2.8693    0.0170   -3.4389 H         1 <0>         0.1250
     31 H11        -7.0968   -1.4121    1.1996 H         1 <0>         0.0850
     32 H12        -5.4898   -0.8505    1.7195 H         1 <0>         0.1084
     33 H13        -5.4706    0.7817   -0.1636 H         1 <0>         0.0699
     34 H14        -7.1003    0.2408   -0.6323 H         1 <0>         0.0449
     35 H15        -6.8475    1.0530    0.9313 H         1 <0>         0.0749
     36 H16        -5.1229   -2.4156   -2.9536 H         1 <0>         0.1249
     37 H17        -5.1879   -3.8058   -1.8222 H         1 <0>         0.1605
     38 H18        -7.3250   -2.8755   -3.8196 H         1 <0>         0.0813
     39 H19        -6.6895   -4.5334   -3.5610 H         1 <0>         0.1060
     40 H20        -9.0105   -3.5641   -2.3431 H         1 <0>         0.0884
     41 H21        -7.9950   -4.8624   -1.6460 H         1 <0>         0.1010
     42 H22        -8.9941   -1.3523   -1.4312 H         1 <0>         0.0696
     43 H23        -9.6171   -2.4559   -0.1814 H         1 <0>         0.0971
     44 H24        -8.4232   -1.2077    0.2485 H         1 <0>         0.0817
     45 H25        -6.6755   -1.2640   -1.6837 H         1 <0>         0.3962
@<TRIPOS>BOND
     1    1    2 1
     2    1   22 1
     3    1   23 1
     4    1   24 1
     5    2    3 1
     6    2   25 1
     7    2   26 1
     8    3    8 ar
     9    3    4 ar
    10    4    5 ar
    11    4   27 1
    12    5    6 ar
    13    5   28 1
    14    6    7 ar
    15    6    9 1
    16    7    8 ar
    17    7   29 1
    18    8   30 1
    19    9   10 1
    20    9   12 1
    21    9   15 1
    22   10   11 1
    23   10   31 1
    24   10   32 1
    25   11   33 1
    26   11   34 1
    27   11   35 1
    28   12   13 2
    29   12   14 1
    30   15   19 1
    31   15   16 1
    32   15   45 1
    33   16   17 1
    34   16   36 1
    35   16   37 1
    36   17   18 1
    37   17   38 1
    38   17   39 1
    39   18   19 1
    40   18   40 1
    41   18   41 1
    42   19   20 1
    43   19   21 1
    44   21   42 1
    45   21   43 1
    46   21   44 1
@<TRIPOS>MOLECULE
ZINC52254656
   43    43     0     0     0
SMALL
USER_CHARGES

@<TRIPOS>ATOM
      1 C1         -0.5271    2.5064   -0.2187 C.3       1 <0>        -0.1527
      2 C2         -0.4682    0.9789   -0.1523 C.3       1 <0>         0.0558
      3 O1          0.3852    0.4896   -1.1888 O.3       1 <0>        -0.3423
      4 C3          0.5454   -0.8406   -1.2690 C.2       1 <0>         0.4767
      5 O2         -0.0202   -1.5656   -0.4852 O.2       1 <0>        -0.5093
      6 C4          1.4307   -1.4299   -2.3367 C.3       1 <0>        -0.1097
      7 H1          2.4452   -1.0492   -2.2185 H         1 <0>         0.1133
      8 C5          0.8965   -1.0381   -3.7158 C.3       1 <0>        -0.0829
      9 C6         -0.5755   -1.4409   -3.8259 C.3       1 <0>        -0.1633
     10 C7          1.0265    0.4750   -3.9021 C.3       1 <0>        -0.1575
     11 C8          1.4399   -2.9544   -2.2076 C.3       1 <0>         0.1600
     12 C9          2.2869   -3.5563   -3.3306 C.3       1 <0>        -0.1057
     13 C10         2.2960   -5.0808   -3.2015 C.3       1 <0>        -0.1176
     14 C11         2.8901   -5.4744   -1.8476 C.3       1 <0>        -0.1165
     15 C12         2.0431   -4.8726   -0.7246 C.3       1 <0>        -0.0818
     16 H2          2.4664   -5.1530    0.2399 H         1 <0>         0.0628
     17 C13         2.0340   -3.3480   -0.8537 C.3       1 <0>        -0.1516
     18 C14         0.6111   -5.4016   -0.8263 C.3       1 <0>        -0.1555
     19 O3          0.1024   -3.4485   -2.3026 O.3       1 <0>        -0.5454
     20 H3          0.4750    2.9146   -0.0872 H         1 <0>         0.0669
     21 H4         -0.9201    2.8130   -1.1880 H         1 <0>         0.0670
     22 H5         -1.1780    2.8796    0.5719 H         1 <0>         0.0801
     23 H6         -0.0752    0.6723    0.8170 H         1 <0>         0.0678
     24 H7         -1.4703    0.5707   -0.2837 H         1 <0>         0.0682
     25 H8          1.4719   -1.5499   -4.4873 H         1 <0>         0.0907
     26 H9         -1.1244   -1.0491   -2.9695 H         1 <0>         0.0416
     27 H10        -0.9962   -1.0326   -4.7448 H         1 <0>         0.0542
     28 H11        -0.6545   -2.5279   -3.8416 H         1 <0>         0.0924
     29 H12         2.0527    0.7795   -3.6969 H         1 <0>         0.0553
     30 H13         0.7675    0.7384   -4.9276 H         1 <0>         0.0574
     31 H14         0.3518    0.9850   -3.2145 H         1 <0>         0.0700
     32 H15         1.8636   -3.2759   -4.2952 H         1 <0>         0.0753
     33 H16         3.3071   -3.1794   -3.2582 H         1 <0>         0.0737
     34 H17         1.2758   -5.4577   -3.2740 H         1 <0>         0.0775
     35 H18         2.8994   -5.5096   -4.0016 H         1 <0>         0.0606
     36 H19         2.8966   -6.5605   -1.7557 H         1 <0>         0.0614
     37 H20         3.9103   -5.0975   -1.7752 H         1 <0>         0.0578
     38 H21         3.0542   -2.9711   -0.7813 H         1 <0>         0.0632
     39 H22         1.4305   -2.9192   -0.0537 H         1 <0>         0.0836
     40 H23         0.5887   -6.4494   -0.5269 H         1 <0>         0.0380
     41 H24        -0.0378   -4.8221   -0.1697 H         1 <0>         0.0480
     42 H25         0.2622   -5.3101   -1.8549 H         1 <0>         0.0918
     43 H26        -0.5017   -3.0772   -1.6452 H         1 <0>         0.3808
@<TRIPOS>BOND
     1    1    2 1
     2    1   20 1
     3    1   21 1
     4    1   22 1
     5    2    3 1
     6    2   23 1
     7    2   24 1
     8    3    4 1
     9    4    5 2
    10    4    6 1
    11    6    7 1
    12    6    8 1
    13    6   11 1
    14    8    9 1
    15    8   10 1
    16    8   25 1
    17    9   26 1
    18    9   27 1
    19    9   28 1
    20   10   29 1
    21   10   30 1
    22   10   31 1
    23   11   17 1
    24   11   12 1
    25   11   19 1
    26   12   13 1
    27   12   32 1
    28   12   33 1
    29   13   14 1
    30   13   34 1
    31   13   35 1
    32   14   15 1
    33   14   36 1
    34   14   37 1
    35   15   16 1
    36   15   17 1
    37   15   18 1
    38   17   38 1
    39   17   39 1
    40   18   40 1
    41   18   41 1
    42   18   42 1
    43   19   43 1
@<TRIPOS>MOLECULE
ZINC62751960
   48    49     0     0     0
SMALL
USER_CHARGES

@<TRIPOS>ATOM
      1 C1         -0.6020    2.6548   -1.0235 C.3       1 <0>        -0.1541
      2 C2          0.0536    1.4015   -0.4402 C.3       1 <0>        -0.1318
      3 C3         -0.9093    0.2187   -0.5615 C.3       1 <0>        -0.0783
      4 H1         -1.8582    0.4728   -0.0891 H         1 <0>         0.0823
      5 C4         -1.1442   -0.0981   -2.0398 C.3       1 <0>        -0.1231
      6 C5          0.1878   -0.4547   -2.7029 C.3       1 <0>        -0.0967
      7 C6          0.7917   -1.6773   -2.0090 C.3       1 <0>        -0.2021
      8 H2          0.1057   -2.5199   -2.0954 H         1 <0>         0.1090
      9 C7          1.0266   -1.3604   -0.5307 C.3       1 <0>         0.0461
     10 H3          1.7126   -0.5178   -0.4443 H         1 <0>         0.1341
     11 C8         -0.3053   -1.0038    0.1324 C.3       1 <0>        -0.1329
     12 N1          1.6065   -2.5343    0.1355 N.4       1 <0>        -0.3793
     13 C9          2.1331   -2.1412    1.4494 C.3       1 <0>        -0.0097
     14 C10         3.1652   -3.1707    1.9139 C.3       1 <0>        -0.1930
     15 C11         0.5696   -3.5600    0.3104 C.3       1 <0>         0.0184
     16 C12         1.1145   -4.7215    1.1671 C.3       1 <0>        -0.1534
     17 C13         0.4822   -5.9873    0.5371 C.3       1 <0>        -0.1240
     18 C14         0.5138   -5.6673   -0.9780 C.3       1 <0>        -0.1221
     19 C15         0.1877   -4.1614   -1.0535 C.3       1 <0>        -0.1867
     20 C16         2.1036   -2.0285   -2.6621 C.2       1 <0>         0.4760
     21 O1          2.9786   -1.1856   -2.7644 O.co2     1 <0>        -0.6690
     22 O2          2.2901   -3.1555   -3.0882 O.co2     1 <0>        -0.6727
     23 H4          0.0840    3.4975   -0.9371 H         1 <0>         0.0558
     24 H5         -0.8390    2.4855   -2.0739 H         1 <0>         0.0600
     25 H6         -1.5181    2.8743   -0.4751 H         1 <0>         0.0531
     26 H7          0.9697    1.1820   -0.9885 H         1 <0>         0.0744
     27 H8          0.2906    1.5708    0.6102 H         1 <0>         0.0603
     28 H9         -1.8302   -0.9408   -2.1262 H         1 <0>         0.0630
     29 H10        -1.5745    0.7729   -2.5341 H         1 <0>         0.0736
     30 H11         0.0204   -0.6804   -3.7560 H         1 <0>         0.0714
     31 H12         0.8737    0.3879   -2.6164 H         1 <0>         0.0782
     32 H13        -0.1379   -0.7781    1.1855 H         1 <0>         0.0769
     33 H14        -0.9913   -1.8465    0.0460 H         1 <0>         0.0842
     34 H15         2.6055   -1.1619    1.3733 H         1 <0>         0.1239
     35 H16         1.3160   -2.0955    2.1694 H         1 <0>         0.1227
     36 H17         3.8848   -2.6901    2.5768 H         1 <0>         0.0945
     37 H18         2.6605   -3.9757    2.4480 H         1 <0>         0.0922
     38 H19         3.6857   -3.5796    1.0479 H         1 <0>         0.0796
     39 H20        -0.3093   -3.1248    0.7859 H         1 <0>         0.1344
     40 H21         2.2017   -4.7657    1.1027 H         1 <0>         0.0989
     41 H22         0.7970   -4.6122    2.2041 H         1 <0>         0.0891
     42 H23         1.0825   -6.8699    0.7581 H         1 <0>         0.0800
     43 H24        -0.5431   -6.1198    0.8826 H         1 <0>         0.0744
     44 H25         1.5040   -5.8643   -1.3889 H         1 <0>         0.0793
     45 H26        -0.2420   -6.2483   -1.5065 H         1 <0>         0.0771
     46 H27        -0.8768   -4.0187   -1.2396 H         1 <0>         0.0871
     47 H28         0.7718   -3.6921   -1.8452 H         1 <0>         0.1502
     48 H29         2.3554   -2.9059   -0.4295 H         1 <0>         0.4289
@<TRIPOS>BOND
     1    1    2 1
     2    1   23 1
     3    1   24 1
     4    1   25 1
     5    2    3 1
     6    2   26 1
     7    2   27 1
     8    3    4 1
     9    3   11 1
    10    3    5 1
    11    5    6 1
    12    5   28 1
    13    5   29 1
    14    6    7 1
    15    6   30 1
    16    6   31 1
    17    7    8 1
    18    7    9 1
    19    7   20 1
    20    9   10 1
    21    9   11 1
    22    9   12 1
    23   11   32 1
    24   11   33 1
    25   12   13 1
    26   12   15 1
    27   12   48 1
    28   13   14 1
    29   13   34 1
    30   13   35 1
    31   14   36 1
    32   14   37 1
    33   14   38 1
    34   15   19 1
    35   15   16 1
    36   15   39 1
    37   16   17 1
    38   16   40 1
    39   16   41 1
    40   17   18 1
    41   17   42 1
    42   17   43 1
    43   18   19 1
    44   18   44 1
    45   18   45 1
    46   19   46 1
    47   19   47 1
    48   20   21 2
    49   20   22 1
@<TRIPOS>MOLECULE
ZINC35451566
   38    39     0     0     0
SMALL
USER_CHARGES

@<TRIPOS>ATOM
      1 C1         -0.0187    1.5258    0.0104 C.3       1 <0>        -0.1711
      2 C2          0.0021   -0.0041    0.0020 C.3       1 <0>         0.1497
      3 H1          0.5123   -0.3556   -0.8948 H         1 <0>         0.0822
      4 C3         -1.4333   -0.5336    0.0129 C.3       1 <0>        -0.1237
      5 C4         -1.4157   -2.0577   -0.1212 C.3       1 <0>        -0.0376
      6 C5         -2.8295   -2.5793   -0.1105 C.2       1 <0>        -0.0131
      7 C6         -3.6089   -2.7615   -1.1915 C.2       1 <0>        -0.2106
      8 C7         -4.8460   -3.2623   -0.7249 C.2       1 <0>        -0.2133
      9 C8         -4.7485   -3.3560    0.6135 C.2       1 <0>        -0.0433
     10 O1         -3.5229   -2.9465    0.9794 O.3       1 <0>        -0.1770
     11 N1          0.7106   -0.4894    1.1889 N.pl3     1 <0>        -0.7444
     12 C9          2.1052   -0.6040    1.1731 C.ar      1 <0>         0.1911
     13 C10         2.8183   -0.2525    0.0346 C.ar      1 <0>        -0.1593
     14 C11         4.1947   -0.3655    0.0201 C.ar      1 <0>        -0.0942
     15 C12         4.8647   -0.8300    1.1422 C.ar      1 <0>         0.0671
     16 C13         4.1532   -1.1818    2.2796 C.ar      1 <0>        -0.1551
     17 C14         2.7772   -1.0640    2.2979 C.ar      1 <0>        -0.1570
     18 O2          6.2201   -0.9410    1.1270 O.3       1 <0>        -0.3126
     19 C15         6.8447   -1.4263    2.3171 C.3       1 <0>         0.1619
     20 C16         8.3023   -1.4799    2.1195 C.1       1 <0>         0.2072
     21 N2          9.4273   -1.5212    1.9669 N.1       1 <0>        -0.3945
     22 H2          1.0039    1.9031    0.0027 H         1 <0>         0.0620
     23 H3         -0.5459    1.8868   -0.8726 H         1 <0>         0.0646
     24 H4         -0.5289    1.8773    0.9072 H         1 <0>         0.0589
     25 H5         -1.9156   -0.2570    0.9504 H         1 <0>         0.0726
     26 H6         -1.9862   -0.1019   -0.8214 H         1 <0>         0.0836
     27 H7         -0.9334   -2.3344   -1.0587 H         1 <0>         0.0939
     28 H8         -0.8628   -2.4894    0.7131 H         1 <0>         0.0835
     29 H9         -3.3413   -2.5629   -2.2188 H         1 <0>         0.1471
     30 H10        -5.7046   -3.5197   -1.3273 H         1 <0>         0.1481
     31 H11        -5.5231   -3.7053    1.2802 H         1 <0>         0.2025
     32 H12         0.2131   -0.7312    1.9857 H         1 <0>         0.3990
     33 H13         2.2967    0.1089   -0.8393 H         1 <0>         0.1299
     34 H14         4.7494   -0.0925   -0.8654 H         1 <0>         0.1309
     35 H15         4.6756   -1.5437    3.1528 H         1 <0>         0.1300
     36 H16         2.2237   -1.3334    3.1852 H         1 <0>         0.1243
     37 H17         6.6148   -0.7575    3.1466 H         1 <0>         0.1081
     38 H18         6.4715   -2.4254    2.5418 H         1 <0>         0.1082
@<TRIPOS>BOND
     1    1    2 1
     2    1   22 1
     3    1   23 1
     4    1   24 1
     5    2    3 1
     6    2    4 1
     7    2   11 1
     8    4    5 1
     9    4   25 1
    10    4   26 1
    11    5    6 1
    12    5   27 1
    13    5   28 1
    14    6   10 1
    15    6    7 2
    16    7    8 1
    17    7   29 1
    18    8    9 2
    19    8   30 1
    20    9   10 1
    21    9   31 1
    22   11   12 1
    23   11   32 1
    24   12   17 ar
    25   12   13 ar
    26   13   14 ar
    27   13   33 1
    28   14   15 ar
    29   14   34 1
    30   15   16 ar
    31   15   18 1
    32   16   17 ar
    33   16   35 1
    34   17   36 1
    35   18   19 1
    36   19   20 1
    37   19   37 1
    38   19   38 1
    39   20   21 3
@<TRIPOS>MOLECULE
ZINC37054549
   39    40     0     0     0
SMALL
USER_CHARGES

@<TRIPOS>ATOM
      1 C1         -0.0187    1.5258    0.0104 C.3       1 <0>        -0.1720
      2 C2          0.0021   -0.0041    0.0020 C.3       1 <0>         0.1473
      3 H1         -1.0205   -0.3814    0.0098 H         1 <0>         0.0843
      4 C3          0.7182   -0.4975   -1.2568 C.3       1 <0>        -0.1237
      5 C4          0.6303   -2.0233   -1.3286 C.3       1 <0>        -0.0385
      6 C5          1.3357   -2.5093   -2.5685 C.2       1 <0>        -0.0139
      7 C6          2.6347   -2.8482   -2.6527 C.2       1 <0>        -0.2097
      8 C7          2.8690   -3.2435   -3.9898 C.2       1 <0>        -0.2138
      9 C8          1.6991   -3.1226   -4.6426 C.2       1 <0>        -0.0419
     10 O1          0.7726   -2.6830   -3.7753 O.3       1 <0>        -0.1765
     11 N1          0.7106   -0.4894    1.1889 N.pl3     1 <0>        -0.7392
     12 C9          0.0264   -0.6389    2.3994 C.ar      1 <0>         0.1984
     13 C10        -1.3280   -0.3321    2.4742 C.ar      1 <0>        -0.1341
     14 C11        -2.0102   -0.4773    3.6664 C.ar      1 <0>        -0.1152
     15 C12        -1.3506   -0.9293    4.7950 C.ar      1 <0>         0.1049
     16 C13         0.0114   -1.2404    4.7294 C.ar      1 <0>        -0.1142
     17 C14         0.6969   -1.0977    3.5209 C.ar      1 <0>        -0.1139
     18 C15         0.7198   -1.7229    5.9307 C.2       1 <0>         0.5045
     19 O2          0.1199   -1.8507    6.9794 O.2       1 <0>        -0.4874
     20 O3          2.0319   -2.0217    5.8644 O.3       1 <0>        -0.3488
     21 C16         2.6536   -2.4833    7.0655 C.3       1 <0>         0.0343
     22 F1         -2.0211   -1.0697    5.9594 F         1 <0>        -0.1206
     23 H2          1.0039    1.9031    0.0027 H         1 <0>         0.0611
     24 H3         -0.5459    1.8868   -0.8726 H         1 <0>         0.0670
     25 H4         -0.5289    1.8773    0.9072 H         1 <0>         0.0621
     26 H5          0.2444   -0.0644   -2.1377 H         1 <0>         0.0845
     27 H6          1.7648   -0.1951   -1.2215 H         1 <0>         0.0755
     28 H7          1.1041   -2.4564   -0.4477 H         1 <0>         0.0952
     29 H8         -0.4163   -2.3257   -1.3639 H         1 <0>         0.0828
     30 H9          3.3598   -2.8225   -1.8527 H         1 <0>         0.1465
     31 H10         3.8073   -3.5781   -4.4070 H         1 <0>         0.1482
     32 H11         1.5322   -3.3452   -5.6862 H         1 <0>         0.2028
     33 H12         1.6544   -0.7070    1.1351 H         1 <0>         0.4030
     34 H13        -1.8485    0.0216    1.5965 H         1 <0>         0.1397
     35 H14        -3.0619   -0.2369    3.7175 H         1 <0>         0.1459
     36 H15         1.7477   -1.3404    3.4623 H         1 <0>         0.1454
     37 H16         2.5660   -1.7184    7.8371 H         1 <0>         0.0626
     38 H17         2.1619   -3.3963    7.4014 H         1 <0>         0.0626
     39 H18         3.7071   -2.6874    6.8740 H         1 <0>         0.1050
@<TRIPOS>BOND
     1    1    2 1
     2    1   23 1
     3    1   24 1
     4    1   25 1
     5    2    3 1
     6    2    4 1
     7    2   11 1
     8    4    5 1
     9    4   26 1
    10    4   27 1
    11    5    6 1
    12    5   28 1
    13    5   29 1
    14    6   10 1
    15    6    7 2
    16    7    8 1
    17    7   30 1
    18    8    9 2
    19    8   31 1
    20    9   10 1
    21    9   32 1
    22   11   12 1
    23   11   33 1
    24   12   17 ar
    25   12   13 ar
    26   13   14 ar
    27   13   34 1
    28   14   15 ar
    29   14   35 1
    30   15   16 ar
    31   15   22 1
    32   16   17 ar
    33   16   18 1
    34   17   36 1
    35   18   19 2
    36   18   20 1
    37   20   21 1
    38   21   37 1
    39   21   38 1
    40   21   39 1
@<TRIPOS>MOLECULE
ZINC36703499
   44    45     0     0     0
SMALL
USER_CHARGES

@<TRIPOS>ATOM
      1 C1         -0.0187    1.5258    0.0104 C.3       1 <0>        -0.1647
      2 C2          0.0021   -0.0041    0.0020 C.3       1 <0>         0.1407
      3 H1         -1.0205   -0.3814    0.0098 H         1 <0>         0.0889
      4 C3          0.7182   -0.4975   -1.2568 C.3       1 <0>        -0.1294
      5 C4          0.6303   -2.0233   -1.3286 C.3       1 <0>        -0.1151
      6 C5          1.3465   -2.5167   -2.5874 C.3       1 <0>        -0.0982
      7 C6          2.8399   -2.2018   -2.4810 C.3       1 <0>        -0.1500
      8 C7          1.1524   -4.0281   -2.7252 C.3       1 <0>        -0.1492
      9 N1          0.7106   -0.4894    1.1889 N.am      1 <0>        -0.7198
     10 C8          0.0512   -0.6335    2.3554 C.2       1 <0>         0.5477
     11 O1         -1.1331   -0.3604    2.4229 O.2       1 <0>        -0.5434
     12 C9          0.7586   -1.1180    3.5403 C.2       1 <0>        -0.2121
     13 C10         0.0981   -1.2623    4.7087 C.2       1 <0>        -0.0118
     14 C11         0.8091   -1.7492    5.8996 C.ar      1 <0>        -0.0679
     15 C12         2.1721   -2.0584    5.8261 C.ar      1 <0>        -0.0883
     16 C13         2.8356   -2.5138    6.9436 C.ar      1 <0>        -0.1024
     17 C14         2.1574   -2.6678    8.1458 C.ar      1 <0>         0.0454
     18 C15         0.7979   -2.3616    8.2268 C.ar      1 <0>         0.0301
     19 C16         0.1266   -1.8997    7.1121 C.ar      1 <0>        -0.0760
     20 O2          0.3740   -2.5970    9.5032 O.3       1 <0>        -0.3065
     21 C17         1.3842   -3.4352   10.0946 C.3       1 <0>         0.2125
     22 O3          2.5807   -3.0931    9.3707 O.3       1 <0>        -0.3061
     23 H2          1.0039    1.9031    0.0027 H         1 <0>         0.0566
     24 H3         -0.5459    1.8868   -0.8726 H         1 <0>         0.0661
     25 H4         -0.5289    1.8773    0.9072 H         1 <0>         0.0611
     26 H5          0.2444   -0.0644   -2.1377 H         1 <0>         0.0791
     27 H6          1.7648   -0.1951   -1.2215 H         1 <0>         0.0713
     28 H7          1.1041   -2.4564   -0.4477 H         1 <0>         0.0632
     29 H8         -0.4163   -2.3257   -1.3639 H         1 <0>         0.0630
     30 H9          0.9309   -2.0158   -3.4618 H         1 <0>         0.0694
     31 H10         3.2555   -2.7027   -1.6067 H         1 <0>         0.0536
     32 H11         3.3501   -2.5534   -3.3778 H         1 <0>         0.0533
     33 H12         2.9782   -1.1251   -2.3828 H         1 <0>         0.0562
     34 H13         0.0885   -4.2524   -2.8010 H         1 <0>         0.0540
     35 H14         1.6626   -4.3796   -3.6220 H         1 <0>         0.0542
     36 H15         1.5680   -4.5290   -1.8509 H         1 <0>         0.0537
     37 H16         1.6544   -0.7070    1.1351 H         1 <0>         0.4001
     38 H17         1.8093   -1.3603    3.4805 H         1 <0>         0.1305
     39 H18        -0.9526   -1.0200    4.7685 H         1 <0>         0.1398
     40 H19         2.7032   -1.9401    4.8932 H         1 <0>         0.1439
     41 H20         3.8874   -2.7519    6.8850 H         1 <0>         0.1409
     42 H21        -0.9242   -1.6582    7.1749 H         1 <0>         0.1427
     43 H22         1.4992   -3.2067   11.1541 H         1 <0>         0.1352
     44 H23         1.1391   -4.4879    9.9533 H         1 <0>         0.0878
@<TRIPOS>BOND
     1    1    2 1
     2    1   23 1
     3    1   24 1
     4    1   25 1
     5    2    3 1
     6    2    4 1
     7    2    9 1
     8    4    5 1
     9    4   26 1
    10    4   27 1
    11    5    6 1
    12    5   28 1
    13    5   29 1
    14    6    7 1
    15    6    8 1
    16    6   30 1
    17    7   31 1
    18    7   32 1
    19    7   33 1
    20    8   34 1
    21    8   35 1
    22    8   36 1
    23    9   10 am
    24    9   37 1
    25   10   11 2
    26   10   12 1
    27   12   13 2
    28   12   38 1
    29   13   14 1
    30   13   39 1
    31   14   19 ar
    32   14   15 ar
    33   15   16 ar
    34   15   40 1
    35   16   17 ar
    36   16   41 1
    37   17   22 1
    38   17   18 ar
    39   18   19 ar
    40   18   20 1
    41   19   42 1
    42   20   21 1
    43   21   22 1
    44   21   43 1
    45   21   44 1
@<TRIPOS>MOLECULE
ZINC50833384
   41    42     0     0     0
SMALL
USER_CHARGES

@<TRIPOS>ATOM
      1 C1         -0.0187    1.5258    0.0104 C.3       1 <0>        -0.1511
      2 C2          0.0021   -0.0041    0.0020 C.3       1 <0>        -0.1351
      3 C3         -1.4333   -0.5336    0.0129 C.3       1 <0>         0.1098
      4 N1         -1.4134   -1.9985    0.0048 N.pl3     1 <0>        -0.6690
      5 C4         -2.6098   -2.7111    0.0124 C.2       1 <0>         0.1117
      6 C5         -2.8055   -4.0629    0.0126 C.2       1 <0>        -0.0999
      7 N2         -4.0549   -4.4704    0.0216 N.2       1 <0>        -0.1849
      8 N3         -5.0023   -3.5947    0.0295 N.2       1 <0>        -0.2454
      9 S1         -4.1873   -2.1306    0.0312 S.3       1 <0>         0.2617
     10 C6         -1.6526   -5.0334    0.0027 C.3       1 <0>         0.1551
     11 O1         -1.2777   -5.3414    1.3467 O.3       1 <0>        -0.3766
     12 C7         -0.1870   -6.2589    1.4501 C.3       1 <0>         0.0928
     13 C8          1.1101   -5.4980    1.5045 C.3       1 <0>        -0.1402
     14 C9          2.2631   -6.2481    0.8104 C.3       1 <0>        -0.1158
     15 C10         2.2647   -7.7577    1.1183 C.3       1 <0>        -0.1231
     16 C11         1.9640   -8.0509    2.5632 C.3       1 <0>        -0.1210
     17 C12         0.4509   -8.3149    2.7049 C.3       1 <0>        -0.1179
     18 C13        -0.3254   -7.0845    2.7456 C.3       1 <0>        -0.1140
     19 H1          1.0039    1.9031    0.0027 H         1 <0>         0.0646
     20 H2         -0.5459    1.8868   -0.8726 H         1 <0>         0.0604
     21 H3         -0.5289    1.8773    0.9072 H         1 <0>         0.0606
     22 H4          0.5123   -0.3556   -0.8948 H         1 <0>         0.0729
     23 H5          0.5293   -0.3651    0.8851 H         1 <0>         0.0735
     24 H6         -1.9435   -0.1821    0.9097 H         1 <0>         0.0756
     25 H7         -1.9605   -0.1726   -0.8702 H         1 <0>         0.0755
     26 H8         -0.5669   -2.4720   -0.0058 H         1 <0>         0.4139
     27 H9         -1.9518   -5.9477   -0.5097 H         1 <0>         0.0711
     28 H10        -0.8056   -4.5859   -0.5174 H         1 <0>         0.0577
     29 H11        -0.1873   -6.9266    0.5886 H         1 <0>         0.0657
     30 H12         0.9734   -4.5327    1.0170 H         1 <0>         0.0618
     31 H13         1.3766   -5.3295    2.5479 H         1 <0>         0.0692
     32 H14         2.1745   -6.1092   -0.2671 H         1 <0>         0.0586
     33 H15         3.2098   -5.8209    1.1410 H         1 <0>         0.0628
     34 H16         1.5145   -8.2454    0.4959 H         1 <0>         0.0610
     35 H17         3.2445   -8.1668    0.8720 H         1 <0>         0.0610
     36 H18         2.5208   -8.9322    2.8816 H         1 <0>         0.0644
     37 H19         2.2454   -7.1951    3.1768 H         1 <0>         0.0667
     38 H20         0.1166   -8.9154    1.8589 H         1 <0>         0.0621
     39 H21         0.2747   -8.8740    3.6238 H         1 <0>         0.0665
     40 H22         0.0141   -6.4805    3.5871 H         1 <0>         0.0664
     41 H23        -1.3759   -7.3347    2.8941 H         1 <0>         0.0711
@<TRIPOS>BOND
     1    1    2 1
     2    1   19 1
     3    1   20 1
     4    1   21 1
     5    2    3 1
     6    2   22 1
     7    2   23 1
     8    3    4 1
     9    3   24 1
    10    3   25 1
    11    4    5 1
    12    4   26 1
    13    5    9 1
    14    5    6 2
    15    6    7 1
    16    6   10 1
    17    7    8 2
    18    8    9 1
    19   10   11 1
    20   10   27 1
    21   10   28 1
    22   11   12 1
    23   12   18 1
    24   12   13 1
    25   12   29 1
    26   13   14 1
    27   13   30 1
    28   13   31 1
    29   14   15 1
    30   14   32 1
    31   14   33 1
    32   15   16 1
    33   15   34 1
    34   15   35 1
    35   16   17 1
    36   16   36 1
    37   16   37 1
    38   17   18 1
    39   17   38 1
    40   17   39 1
    41   18   40 1
    42   18   41 1
@<TRIPOS>MOLECULE
ZINC62138324
   40    41     0     0     0
SMALL
USER_CHARGES

@<TRIPOS>ATOM
      1 C1          0.0597    1.9454    0.0730 C.3       1 <0>        -0.1184
      2 C2          0.0997    0.4453   -0.0649 C.ar      1 <0>        -0.0846
      3 C3          0.1247   -0.1330   -1.3205 C.ar      1 <0>        -0.1206
      4 C4          0.1614   -1.5088   -1.4470 C.ar      1 <0>        -0.1217
      5 C5          0.1735   -2.3068   -0.3180 C.ar      1 <0>        -0.1234
      6 C6          0.1494   -1.7286    0.9372 C.ar      1 <0>        -0.1134
      7 C7          0.1170   -0.3523    1.0637 C.ar      1 <0>        -0.0822
      8 C8          0.0960    0.2783    2.4323 C.3       1 <0>        -0.0772
      9 C9         -1.3505    0.5680    2.8382 C.3       1 <0>        -0.1397
     10 C10        -1.3718    1.2082    4.2277 C.3       1 <0>         0.1196
     11 H1         -0.8432    0.5657    4.9319 H         1 <0>         0.0962
     12 C11        -2.8209    1.3836    4.6862 C.3       1 <0>        -0.1368
     13 C12        -2.8409    1.8978    6.1026 C.ar      1 <0>        -0.0046
     14 C13        -3.1038    3.2324    6.3500 C.ar      1 <0>        -0.1149
     15 C14        -3.1221    3.7039    7.6490 C.ar      1 <0>        -0.0625
     16 C15        -2.8779    2.8409    8.7012 C.ar      1 <0>        -0.1236
     17 C16        -2.6160    1.5065    8.4540 C.ar      1 <0>        -0.0525
     18 C17        -2.6019    1.0340    7.1548 C.ar      1 <0>        -0.0527
     19 N1         -2.3263   -0.3961    6.8903 N.pl3     1 <0>         0.0374
     20 O1         -2.0144   -1.1297    7.7992 O.2       1 <0>        -0.1604
     21 O2         -2.4132   -0.8305    5.7654 O.3       1 <0>        -0.1595
     22 O3         -0.7313    2.4845    4.1740 O.3       1 <0>        -0.5587
     23 H2          1.0773    2.3342    0.1096 H         1 <0>         0.0699
     24 H3         -0.4629    2.3751   -0.7817 H         1 <0>         0.0645
     25 H4         -0.4644    2.2121    0.9908 H         1 <0>         0.0695
     26 H5          0.1153    0.4903   -2.2024 H         1 <0>         0.1200
     27 H6          0.1803   -1.9606   -2.4278 H         1 <0>         0.1203
     28 H7          0.2015   -3.3819   -0.4169 H         1 <0>         0.1210
     29 H8          0.1585   -2.3520    1.8191 H         1 <0>         0.1224
     30 H9          0.5461   -0.4039    3.1536 H         1 <0>         0.0709
     31 H10         0.6612    1.2101    2.4118 H         1 <0>         0.0797
     32 H11        -1.8005    1.2502    2.1169 H         1 <0>         0.0689
     33 H12        -1.9157   -0.3638    2.8587 H         1 <0>         0.0822
     34 H13        -3.3246    2.0968    4.0337 H         1 <0>         0.0849
     35 H14        -3.3351    0.4236    4.6408 H         1 <0>         0.1190
     36 H15        -3.2946    3.9065    5.5281 H         1 <0>         0.1448
     37 H16        -3.3268    4.7466    7.8422 H         1 <0>         0.1435
     38 H17        -2.8915    3.2095    9.7163 H         1 <0>         0.1473
     39 H18        -2.4248    0.8325    9.2759 H         1 <0>         0.1531
     40 H19        -1.1921    3.1330    3.6243 H         1 <0>         0.3721
@<TRIPOS>BOND
     1    1    2 1
     2    1   23 1
     3    1   24 1
     4    1   25 1
     5    2    7 ar
     6    2    3 ar
     7    3    4 ar
     8    3   26 1
     9    4    5 ar
    10    4   27 1
    11    5    6 ar
    12    5   28 1
    13    6    7 ar
    14    6   29 1
    15    7    8 1
    16    8    9 1
    17    8   30 1
    18    8   31 1
    19    9   10 1
    20    9   32 1
    21    9   33 1
    22   10   11 1
    23   10   12 1
    24   10   22 1
    25   12   13 1
    26   12   34 1
    27   12   35 1
    28   13   18 ar
    29   13   14 ar
    30   14   15 ar
    31   14   36 1
    32   15   16 ar
    33   15   37 1
    34   16   17 ar
    35   16   38 1
    36   17   18 ar
    37   17   39 1
    38   18   19 1
    39   19   20 2
    40   19   21 1
    41   22   40 1
@<TRIPOS>MOLECULE
ZINC03168593
   50    50     0     0     0
SMALL
USER_CHARGES
methyl 2-[(4-hydroxy-3,5-ditert-butyl-phenyl)methyleneaminooxy]acetate
@<TRIPOS>ATOM
      1 C1         -3.6452   -1.8974    0.0267 C.3       1 <0>        -0.1489
      2 C2         -2.4666   -2.8729    0.0102 C.3       1 <0>        -0.0203
      3 C3         -2.5454   -3.7470   -1.2430 C.3       1 <0>        -0.1430
      4 C4         -2.5216   -3.7603    1.2553 C.3       1 <0>        -0.1427
      5 C5         -1.1738   -2.0985    0.0020 C.ar      1 <0>        -0.0967
      6 C6         -1.1969   -0.7209    0.0096 C.ar      1 <0>        -0.0760
      7 C7          0.0021   -0.0041    0.0020 C.ar      1 <0>        -0.0691
      8 C8          1.2200   -0.6879   -0.0191 C.ar      1 <0>        -0.0700
      9 C9          1.2343   -2.0657   -0.0216 C.ar      1 <0>        -0.0988
     10 C10         0.0396   -2.7747   -0.0136 C.ar      1 <0>         0.1397
     11 O1          0.0581   -4.1326   -0.0215 O.3       1 <0>        -0.4845
     12 C11         2.5476   -2.8046   -0.0396 C.3       1 <0>        -0.0208
     13 C12         3.6993   -1.7974   -0.0454 C.3       1 <0>        -0.1477
     14 C13         2.6513   -3.6907    1.2033 C.3       1 <0>        -0.1423
     15 C14         2.6255   -3.6757   -1.2950 C.3       1 <0>        -0.1426
     16 C15        -0.0179    1.4711    0.0101 C.2       1 <0>         0.1639
     17 N1          1.0937    2.1332    0.0031 N.2       1 <0>        -0.3340
     18 O2          1.0745    3.5491    0.0109 O.3       1 <0>        -0.2238
     19 C16         2.3719    4.1480    0.0017 C.3       1 <0>         0.0865
     20 C17         2.2326    5.6485    0.0111 C.2       1 <0>         0.4642
     21 O3          1.1349    6.1532    0.0243 O.2       1 <0>        -0.4885
     22 O4          3.3279    6.4243    0.0048 O.3       1 <0>        -0.3548
     23 C18         3.1182    7.8610    0.0145 C.3       1 <0>         0.0370
     24 H1         -3.6060   -1.2652   -0.8604 H         1 <0>         0.0590
     25 H2         -4.5803   -2.4575    0.0326 H         1 <0>         0.0609
     26 H3         -3.5890   -1.2747    0.9195 H         1 <0>         0.0598
     27 H4         -1.7058   -4.4419   -1.2547 H         1 <0>         0.0581
     28 H5         -3.4805   -4.3071   -1.2371 H         1 <0>         0.0617
     29 H6         -2.5062   -3.1147   -2.1300 H         1 <0>         0.0552
     30 H7         -2.4655   -3.1376    2.1482 H         1 <0>         0.0519
     31 H8         -3.4567   -4.3204    1.2613 H         1 <0>         0.0552
     32 H9         -1.6820   -4.4552    1.2436 H         1 <0>         0.0751
     33 H10        -2.1407   -0.1960    0.0211 H         1 <0>         0.1379
     34 H11         2.1492   -0.1375   -0.0295 H         1 <0>         0.1415
     35 H12         0.0548   -4.5209   -0.9071 H         1 <0>         0.3852
     36 H13         3.6438   -1.1768    0.8489 H         1 <0>         0.0593
     37 H14         4.6492   -2.3319   -0.0584 H         1 <0>         0.0604
     38 H15         3.6255   -1.1661   -0.9309 H         1 <0>         0.0586
     39 H16         1.8307   -4.4082    1.2075 H         1 <0>         0.0751
     40 H17         3.6012   -4.2251    1.1904 H         1 <0>         0.0552
     41 H18         2.5957   -3.0701    2.0977 H         1 <0>         0.0515
     42 H19         2.5517   -3.0445   -2.1805 H         1 <0>         0.0548
     43 H20         3.5754   -4.2102   -1.3079 H         1 <0>         0.0617
     44 H21         1.8050   -4.3933   -1.2908 H         1 <0>         0.0580
     45 H22        -0.9605    1.9983    0.0175 H         1 <0>         0.1293
     46 H23         2.9256    3.8290    0.8847 H         1 <0>         0.1039
     47 H24         2.9086    3.8385   -0.8951 H         1 <0>         0.1039
     48 H25         4.0825    8.3691    0.0080 H         1 <0>         0.1073
     49 H26         2.5488    8.1511   -0.8685 H         1 <0>         0.0660
     50 H27         2.5658    8.1415    0.9113 H         1 <0>         0.0661
@<TRIPOS>BOND
     1    1    2 1
     2    1   24 1
     3    1   25 1
     4    1   26 1
     5    2    3 1
     6    2    4 1
     7    2    5 1
     8    3   27 1
     9    3   28 1
    10    3   29 1
    11    4   30 1
    12    4   31 1
    13    4   32 1
    14    5   10 ar
    15    5    6 ar
    16    6    7 ar
    17    6   33 1
    18    7    8 ar
    19    7   16 1
    20    8    9 ar
    21    8   34 1
    22    9   10 ar
    23    9   12 1
    24   10   11 1
    25   11   35 1
    26   12   13 1
    27   12   14 1
    28   12   15 1
    29   13   36 1
    30   13   37 1
    31   13   38 1
    32   14   39 1
    33   14   40 1
    34   14   41 1
    35   15   42 1
    36   15   43 1
    37   15   44 1
    38   16   17 2
    39   16   45 1
    40   17   18 1
    41   18   19 1
    42   19   20 1
    43   19   46 1
    44   19   47 1
    45   20   21 2
    46   20   22 1
    47   22   23 1
    48   23   48 1
    49   23   49 1
    50   23   50 1
@<TRIPOS>MOLECULE
ZINC10316276
   38    39     0     0     0
SMALL
USER_CHARGES
tert-butyl 2-[[5-(2-fluorophenyl)amino-1,3,4-thiadiazol-2-yl]sulfanyl]acetate
@<TRIPOS>ATOM
      1 C1         -8.0862    8.7818   -1.9407 C.3       1 <0>        -0.1855
      2 C2         -8.2958    8.0038   -0.6401 C.3       1 <0>         0.1186
      3 C3         -9.6880    7.3692   -0.6441 C.3       1 <0>        -0.1425
      4 C4         -8.1735    8.9575    0.5500 C.3       1 <0>        -0.1855
      5 O1         -7.2896    6.9626   -0.5314 O.3       1 <0>        -0.3403
      6 C5         -6.0061    7.3550   -0.5141 C.2       1 <0>         0.4894
      7 O2         -5.7324    8.5296   -0.5873 O.2       1 <0>        -0.4855
      8 C6         -4.9064    6.3306   -0.4033 C.3       1 <0>        -0.1384
      9 S1         -3.2973    7.1680   -0.4059 S.3       1 <0>         0.1339
     10 C7         -2.1321    5.8531   -0.2723 C.2       1 <0>         0.0284
     11 N1         -2.3440    4.5534   -0.1886 N.2       1 <0>        -0.2780
     12 N2         -1.2763    3.6907   -0.0965 N.2       1 <0>        -0.3535
     13 C8         -0.0468    4.1673   -0.0810 C.2       1 <0>         0.3338
     14 S2         -0.3481    5.9229   -0.2147 S.3       1 <0>         0.0390
     15 N3          1.1613    3.4852    0.0092 N.pl3     1 <0>        -0.5981
     16 C9          1.1698    2.1040    0.2294 C.ar      1 <0>         0.1306
     17 C10        -0.0118    1.4400    0.5311 C.ar      1 <0>        -0.1313
     18 C11        -0.0003    0.0757    0.7476 C.ar      1 <0>        -0.0942
     19 C12         1.1860   -0.6300    0.6643 C.ar      1 <0>        -0.1132
     20 C13         2.3655    0.0266    0.3640 C.ar      1 <0>        -0.1230
     21 C14         2.3619    1.3921    0.1465 C.ar      1 <0>         0.0616
     22 F1          3.5143    2.0338   -0.1459 F         1 <0>        -0.1381
     23 H1         -8.1733    8.1024   -2.7886 H         1 <0>         0.0637
     24 H2         -8.8415    9.5634   -2.0224 H         1 <0>         0.0755
     25 H3         -7.0944    9.2339   -1.9379 H         1 <0>         0.0840
     26 H4         -9.8373    6.8149    0.2825 H         1 <0>         0.0687
     27 H5        -10.4433    8.1508   -0.7257 H         1 <0>         0.0824
     28 H6         -9.7751    6.6898   -1.4920 H         1 <0>         0.0687
     29 H7         -7.1817    9.4096    0.5529 H         1 <0>         0.0840
     30 H8         -8.9288    9.7391    0.4684 H         1 <0>         0.0755
     31 H9         -8.3228    8.4032    1.4766 H         1 <0>         0.0637
     32 H10        -4.9610    5.6459   -1.2496 H         1 <0>         0.1402
     33 H11        -5.0232    5.7710    0.5248 H         1 <0>         0.1404
     34 H12         1.9982    3.9672   -0.0805 H         1 <0>         0.4347
     35 H13        -0.9399    1.9890    0.5921 H         1 <0>         0.1742
     36 H14        -0.9194   -0.4407    0.9819 H         1 <0>         0.1365
     37 H15         1.1913   -1.6966    0.8337 H         1 <0>         0.1367
     38 H16         3.2903   -0.5276    0.2998 H         1 <0>         0.1428
@<TRIPOS>BOND
     1    1    2 1
     2    1   23 1
     3    1   24 1
     4    1   25 1
     5    2    3 1
     6    2    4 1
     7    2    5 1
     8    3   26 1
     9    3   27 1
    10    3   28 1
    11    4   29 1
    12    4   30 1
    13    4   31 1
    14    5    6 1
    15    6    7 2
    16    6    8 1
    17    8    9 1
    18    8   32 1
    19    8   33 1
    20    9   10 1
    21   10   14 1
    22   10   11 2
    23   11   12 1
    24   12   13 2
    25   13   14 1
    26   13   15 1
    27   15   16 1
    28   15   34 1
    29   16   21 ar
    30   16   17 ar
    31   17   18 ar
    32   17   35 1
    33   18   19 ar
    34   18   36 1
    35   19   20 ar
    36   19   37 1
    37   20   21 ar
    38   20   38 1
    39   21   22 1
@<TRIPOS>MOLECULE
ZINC31249422
   53    54     0     0     0
SMALL
USER_CHARGES

@<TRIPOS>ATOM
      1 C1         -0.0187    1.5258    0.0104 C.3       1 <0>        -0.1585
      2 C2          0.0021   -0.0041    0.0020 C.3       1 <0>         0.1869
      3 H1         -1.0205   -0.3814    0.0098 H         1 <0>         0.0979
      4 C3          0.7074   -0.4901   -1.2379 C.ar      1 <0>        -0.0970
      5 C4          2.0889   -0.5108   -1.2839 C.ar      1 <0>        -0.1126
      6 C5          2.7359   -0.9566   -2.4212 C.ar      1 <0>        -0.1135
      7 C6          2.0015   -1.3821   -3.5123 C.ar      1 <0>        -0.0727
      8 C7          0.6201   -1.3622   -3.4659 C.ar      1 <0>        -0.1092
      9 C8         -0.0269   -0.9205   -2.3270 C.ar      1 <0>        -0.1034
     10 C9          2.7069   -1.8672   -4.7526 C.3       1 <0>        -0.0589
     11 C10         2.3072   -3.3173   -5.0324 C.3       1 <0>        -0.1453
     12 C11         2.3093   -0.9900   -5.9415 C.3       1 <0>        -0.1454
     13 N1          0.7106   -0.4894    1.1889 N.am      1 <0>        -0.7245
     14 C12         0.0512   -0.6335    2.3554 C.2       1 <0>         0.5652
     15 O1         -1.1321   -0.3606    2.4228 O.2       1 <0>        -0.5155
     16 C13         0.7637   -1.1215    3.5489 C.ar      1 <0>        -0.1900
     17 C14         2.1260   -1.4306    3.4756 C.ar      1 <0>        -0.0355
     18 C15         2.7898   -1.8863    4.5914 C.ar      1 <0>        -0.2123
     19 C16         2.1120   -2.0420    5.7958 C.ar      1 <0>         0.1524
     20 C17         0.7583   -1.7383    5.8817 C.ar      1 <0>         0.0323
     21 C18         0.0801   -1.2723    4.7638 C.ar      1 <0>         0.1825
     22 O2         -1.2407   -0.9692    4.8450 O.3       1 <0>        -0.3125
     23 C19        -2.1662   -2.0227    4.5694 C.3       1 <0>         0.0536
     24 O3          0.0993   -1.8927    7.0625 O.3       1 <0>        -0.3160
     25 C20         0.0743   -0.7678    7.9435 C.3       1 <0>         0.0361
     26 O4          2.7752   -2.4928    6.8920 O.3       1 <0>        -0.2988
     27 C21         4.1647   -2.7867    6.7344 C.3       1 <0>         0.0211
     28 H2          1.0039    1.9031    0.0027 H         1 <0>         0.0585
     29 H3         -0.5459    1.8868   -0.8726 H         1 <0>         0.0686
     30 H4         -0.5289    1.8773    0.9072 H         1 <0>         0.0668
     31 H5          2.6626   -0.1783   -0.4315 H         1 <0>         0.1184
     32 H6          3.8152   -0.9721   -2.4575 H         1 <0>         0.1228
     33 H7          0.0463   -1.6944   -4.3185 H         1 <0>         0.1237
     34 H8         -1.1062   -0.9085   -2.2894 H         1 <0>         0.1248
     35 H9          3.7851   -1.8098   -4.6033 H         1 <0>         0.0777
     36 H10         1.2290   -3.3746   -5.1818 H         1 <0>         0.0571
     37 H11         2.8174   -3.6681   -5.9295 H         1 <0>         0.0593
     38 H12         2.5905   -3.9422   -4.1855 H         1 <0>         0.0559
     39 H13         2.5940    0.0431   -5.7421 H         1 <0>         0.0562
     40 H14         2.8195   -1.3409   -6.8385 H         1 <0>         0.0593
     41 H15         1.2311   -1.0474   -6.0908 H         1 <0>         0.0572
     42 H16         1.6544   -0.7070    1.1351 H         1 <0>         0.3966
     43 H17         2.6570   -1.3118    2.5427 H         1 <0>         0.1355
     44 H18         3.8415   -2.1245    4.5316 H         1 <0>         0.1440
     45 H19        -3.1845   -1.6470    4.6693 H         1 <0>         0.0965
     46 H20        -2.0110   -2.3862    3.5536 H         1 <0>         0.0484
     47 H21        -2.0089   -2.8383    5.2752 H         1 <0>         0.0472
     48 H22        -0.4095    0.0727    7.4459 H         1 <0>         0.0503
     49 H23        -0.4813   -1.0249    8.8453 H         1 <0>         0.0960
     50 H24         1.0946   -0.4932    8.2112 H         1 <0>         0.0459
     51 H25         4.2887   -3.5615    5.9778 H         1 <0>         0.0609
     52 H26         4.6934   -1.8861    6.4221 H         1 <0>         0.0600
     53 H27         4.5720   -3.1366    7.6829 H         1 <0>         0.1062
@<TRIPOS>BOND
     1    1    2 1
     2    1   28 1
     3    1   29 1
     4    1   30 1
     5    2    3 1
     6    2    4 1
     7    2   13 1
     8    4    9 ar
     9    4    5 ar
    10    5    6 ar
    11    5   31 1
    12    6    7 ar
    13    6   32 1
    14    7    8 ar
    15    7   10 1
    16    8    9 ar
    17    8   33 1
    18    9   34 1
    19   10   11 1
    20   10   12 1
    21   10   35 1
    22   11   36 1
    23   11   37 1
    24   11   38 1
    25   12   39 1
    26   12   40 1
    27   12   41 1
    28   13   14 am
    29   13   42 1
    30   14   15 2
    31   14   16 1
    32   16   21 ar
    33   16   17 ar
    34   17   18 ar
    35   17   43 1
    36   18   19 ar
    37   18   44 1
    38   19   20 ar
    39   19   26 1
    40   20   21 ar
    41   20   24 1
    42   21   22 1
    43   22   23 1
    44   23   45 1
    45   23   46 1
    46   23   47 1
    47   24   25 1
    48   25   48 1
    49   25   49 1
    50   25   50 1
    51   26   27 1
    52   27   51 1
    53   27   52 1
    54   27   53 1
@<TRIPOS>MOLECULE
ZINC51756327
   54    54     0     0     0
SMALL
USER_CHARGES

@<TRIPOS>ATOM
      1 C1         -0.0184    1.5028    0.0103 C.3       1 <0>        -0.1086
      2 C2          0.0021   -0.0041    0.0020 C.ar      1 <0>        -0.1434
      3 C3          0.0060   -0.6969   -1.1913 C.ar      1 <0>         0.1062
      4 N1          0.0243   -2.0162   -1.2071 N.ar      1 <0>        -0.4632
      5 C4          0.0395   -2.7261   -0.0946 C.ar      1 <0>         0.1088
      6 C5          0.0369   -2.1077    1.1386 C.ar      1 <0>        -0.1286
      7 C6          0.0231   -0.7162    1.1984 C.ar      1 <0>         0.1331
      8 O1          0.0252   -0.0709    2.3926 O.3       1 <0>        -0.3279
      9 C7         -1.2469    0.2198    2.9751 C.3       1 <0>         0.0331
     10 C8          0.0543   -2.9265    2.4036 C.3       1 <0>        -0.1137
     11 C9          0.0596   -4.2309   -0.1724 C.3       1 <0>         0.1896
     12 N2          1.4472   -4.6998   -0.2045 N.am      1 <0>        -0.7400
     13 C10         1.7111   -6.0196   -0.2741 C.2       1 <0>         0.7109
     14 O2          0.7976   -6.8212   -0.3103 O.2       1 <0>        -0.5815
     15 N3          2.9877   -6.4509   -0.3037 N.am      1 <0>        -0.6245
     16 C11         4.0884   -5.4851   -0.2601 C.3       1 <0>         0.1128
     17 C12         4.4798   -5.2233    1.1956 C.3       1 <0>        -0.1161
     18 C13         5.7084   -4.3124    1.2374 C.3       1 <0>        -0.1471
     19 C14         3.3169   -4.5446    1.9222 C.3       1 <0>        -0.1516
     20 C15         3.2745   -7.8856   -0.3794 C.3       1 <0>         0.1370
     21 C16         3.3662   -8.3106   -1.8463 C.3       1 <0>        -0.1120
     22 C17         3.7880   -9.7792   -1.9263 C.3       1 <0>        -0.1454
     23 C18         2.0010   -8.1351   -2.5144 C.3       1 <0>        -0.1361
     24 H1          1.0042    1.8801    0.0026 H         1 <0>         0.0786
     25 H2         -0.5455    1.8639   -0.8728 H         1 <0>         0.0733
     26 H3         -0.5286    1.8543    0.9071 H         1 <0>         0.0697
     27 H4         -0.0064   -0.1526   -2.1241 H         1 <0>         0.1630
     28 H5         -1.8191    0.8557    2.2995 H         1 <0>         0.0505
     29 H6         -1.7894   -0.7101    3.1457 H         1 <0>         0.0507
     30 H7         -1.1025    0.7356    3.9244 H         1 <0>         0.1010
     31 H8          1.0861   -3.1096    2.7037 H         1 <0>         0.0800
     32 H9         -0.4633   -2.3840    3.1947 H         1 <0>         0.0701
     33 H10        -0.4472   -3.8781    2.2275 H         1 <0>         0.0765
     34 H11        -0.4442   -4.6466    0.7002 H         1 <0>         0.0867
     35 H12        -0.4544   -4.5549   -1.0773 H         1 <0>         0.0854
     36 H13         2.1760   -4.0603   -0.1757 H         1 <0>         0.3973
     37 H14         4.9457   -5.8867   -0.8003 H         1 <0>         0.0833
     38 H15         3.7711   -4.5515   -0.7247 H         1 <0>         0.0707
     39 H16         4.7118   -6.1691    1.6852 H         1 <0>         0.0769
     40 H17         5.4764   -3.3666    0.7478 H         1 <0>         0.0555
     41 H18         5.9873   -4.1259    2.2745 H         1 <0>         0.0596
     42 H19         6.5369   -4.7959    0.7197 H         1 <0>         0.0575
     43 H20         2.4416   -5.1935    1.8924 H         1 <0>         0.0610
     44 H21         3.5957   -4.3581    2.9593 H         1 <0>         0.0577
     45 H22         3.0848   -3.5988    1.4326 H         1 <0>         0.0510
     46 H23         4.2213   -8.0936    0.1190 H         1 <0>         0.0747
     47 H24         2.4759   -8.4422    0.1110 H         1 <0>         0.0856
     48 H25         4.1035   -7.6924   -2.3584 H         1 <0>         0.0668
     49 H26         3.0507  -10.3974   -1.4143 H         1 <0>         0.0573
     50 H27         3.8533  -10.0820   -2.9714 H         1 <0>         0.0571
     51 H28         4.7606   -9.9043   -1.4504 H         1 <0>         0.0541
     52 H29         1.2637   -8.7533   -2.0023 H         1 <0>         0.0597
     53 H30         1.7004   -7.0889   -2.4574 H         1 <0>         0.0525
     54 H31         2.0663   -8.4379   -3.5594 H         1 <0>         0.0447
@<TRIPOS>BOND
     1    1    2 1
     2    1   24 1
     3    1   25 1
     4    1   26 1
     5    2    7 ar
     6    2    3 ar
     7    3    4 ar
     8    3   27 1
     9    4    5 ar
    10    5    6 ar
    11    5   11 1
    12    6    7 ar
    13    6   10 1
    14    7    8 1
    15    8    9 1
    16    9   28 1
    17    9   29 1
    18    9   30 1
    19   10   31 1
    20   10   32 1
    21   10   33 1
    22   11   12 1
    23   11   34 1
    24   11   35 1
    25   12   13 am
    26   12   36 1
    27   13   14 2
    28   13   15 am
    29   15   16 1
    30   15   20 1
    31   16   17 1
    32   16   37 1
    33   16   38 1
    34   17   18 1
    35   17   19 1
    36   17   39 1
    37   18   40 1
    38   18   41 1
    39   18   42 1
    40   19   43 1
    41   19   44 1
    42   19   45 1
    43   20   21 1
    44   20   46 1
    45   20   47 1
    46   21   22 1
    47   21   23 1
    48   21   48 1
    49   22   49 1
    50   22   50 1
    51   22   51 1
    52   23   52 1
    53   23   53 1
    54   23   54 1
@<TRIPOS>MOLECULE
ZINC61539455
   41    42     0     0     0
SMALL
USER_CHARGES

@<TRIPOS>ATOM
      1 C1         -0.0187    1.5258    0.0104 C.3       1 <0>        -0.1387
      2 C2          0.0021   -0.0041    0.0020 C.3       1 <0>        -0.1292
      3 C3         -1.4333   -0.5336    0.0129 C.3       1 <0>         0.2474
      4 H1         -1.9701   -0.1109    0.8621 H         1 <0>         0.1175
      5 C4         -1.4136   -2.0361    0.1285 C.2       1 <0>        -0.1635
      6 C5         -1.6120   -2.8107    1.2230 C.2       1 <0>        -0.1374
      7 C6         -1.5470   -4.1852    1.0921 C.2       1 <0>        -0.1573
      8 C7         -1.2868   -4.7179   -0.1268 C.2       1 <0>        -0.1643
      9 S1         -1.1305   -3.2578   -1.1422 S.3       1 <0>         0.0411
     10 N1         -2.1054   -0.1483   -1.2305 N.pl3     1 <0>        -0.6762
     11 C8         -2.7038    1.0907   -1.3361 C.ar      1 <0>         0.6488
     12 N2         -3.3184    1.4388   -2.4616 N.ar      1 <0>        -0.6461
     13 C9         -3.8937    2.6323   -2.5592 C.ar      1 <0>         0.6432
     14 N3         -3.8529    3.4753   -1.5301 N.ar      1 <0>        -0.6228
     15 C10        -3.2403    3.1258   -0.4109 C.ar      1 <0>         0.4729
     16 N4         -2.6708    1.9359   -0.3089 N.ar      1 <0>        -0.6188
     17 Cl1        -3.1888    4.2285    0.9289 Cl        1 <0>         0.0364
     18 N5         -4.5326    2.9978   -3.7265 N.pl3     1 <0>        -0.5659
     19 C11        -5.1667    4.3141   -3.8333 C.3       1 <0>         0.1220
     20 C12        -4.1537    5.3260   -4.3724 C.3       1 <0>        -0.1667
     21 C13        -4.5766    2.0695   -4.8590 C.3       1 <0>         0.1233
     22 C14        -5.8257    1.1926   -4.7514 C.3       1 <0>        -0.1668
     23 H2          1.0039    1.9031    0.0027 H         1 <0>         0.0499
     24 H3         -0.5459    1.8868   -0.8726 H         1 <0>         0.0456
     25 H4         -0.5289    1.8773    0.9072 H         1 <0>         0.0698
     26 H5          0.5123   -0.3556   -0.8948 H         1 <0>         0.0661
     27 H6          0.5293   -0.3651    0.8851 H         1 <0>         0.0801
     28 H7         -1.8175   -2.3606    2.1830 H         1 <0>         0.1371
     29 H8         -1.7010   -4.8251    1.9484 H         1 <0>         0.1376
     30 H9         -1.2004   -5.7563   -0.4109 H         1 <0>         0.1881
     31 H10        -2.1298   -0.7641   -1.9796 H         1 <0>         0.4170
     32 H11        -6.0168    4.2538   -4.5129 H         1 <0>         0.0810
     33 H12        -5.5102    4.6328   -2.8492 H         1 <0>         0.0918
     34 H13        -4.6255    6.3054   -4.4518 H         1 <0>         0.0700
     35 H14        -3.3036    5.3863   -3.6928 H         1 <0>         0.0592
     36 H15        -3.8102    5.0073   -5.3565 H         1 <0>         0.0543
     37 H16        -4.6083    2.6342   -5.7908 H         1 <0>         0.0811
     38 H17        -3.6877    1.4387   -4.8466 H         1 <0>         0.0897
     39 H18        -5.7940    0.6278   -3.8197 H         1 <0>         0.0582
     40 H19        -6.7146    1.8233   -4.7639 H         1 <0>         0.0552
     41 H20        -5.8585    0.5019   -5.5940 H         1 <0>         0.0693
@<TRIPOS>BOND
     1    1    2 1
     2    1   23 1
     3    1   24 1
     4    1   25 1
     5    2    3 1
     6    2   26 1
     7    2   27 1
     8    3    4 1
     9    3    5 1
    10    3   10 1
    11    5    9 1
    12    5    6 2
    13    6    7 1
    14    6   28 1
    15    7    8 2
    16    7   29 1
    17    8    9 1
    18    8   30 1
    19   10   11 1
    20   10   31 1
    21   11   16 ar
    22   11   12 ar
    23   12   13 ar
    24   13   14 ar
    25   13   18 1
    26   14   15 ar
    27   15   16 ar
    28   15   17 1
    29   18   19 1
    30   18   21 1
    31   19   20 1
    32   19   32 1
    33   19   33 1
    34   20   34 1
    35   20   35 1
    36   20   36 1
    37   21   22 1
    38   21   37 1
    39   21   38 1
    40   22   39 1
    41   22   40 1
    42   22   41 1
@<TRIPOS>MOLECULE
ZINC01583849
   52    52     0     0     0
SMALL
USER_CHARGES
[1-methyl-2-(4-sec-butylphenoxy)-ethyl] 2-ethylbutanoate
@<TRIPOS>ATOM
      1 C1          4.4745   -4.3022  -10.3067 C.3       1 <0>        -0.1555
      2 C2          4.0537   -3.9987   -8.8674 C.3       1 <0>        -0.1162
      3 C3          3.7795   -2.5006   -8.7212 C.3       1 <0>        -0.0490
      4 H1          4.6545   -1.9377   -9.0461 H         1 <0>         0.0772
      5 C4          2.5762   -2.1159   -9.5843 C.3       1 <0>        -0.1464
      6 C5          3.4848   -2.1823   -7.2780 C.ar      1 <0>        -0.1132
      7 C6          4.2871   -1.2907   -6.5902 C.ar      1 <0>        -0.0773
      8 C7          4.0190   -0.9973   -5.2671 C.ar      1 <0>        -0.1475
      9 C8          2.9438   -1.5980   -4.6287 C.ar      1 <0>         0.1259
     10 C9          2.1437   -2.4965   -5.3194 C.ar      1 <0>        -0.2078
     11 C10         2.4128   -2.7827   -6.6438 C.ar      1 <0>        -0.0735
     12 O1          2.6780   -1.3109   -3.3272 O.3       1 <0>        -0.3029
     13 C11         1.5550   -1.9664   -2.7345 C.3       1 <0>         0.0642
     14 C12         1.4152   -1.5212   -1.2774 C.3       1 <0>         0.0866
     15 H2          0.6148   -2.0864   -0.8000 H         1 <0>         0.1040
     16 C13         2.7303   -1.7756   -0.5380 C.3       1 <0>        -0.1682
     17 O2          1.1008   -0.1044   -1.2323 O.3       1 <0>        -0.3370
     18 C14         0.3640    0.3236   -0.1951 C.2       1 <0>         0.4654
     19 O3         -0.0059   -0.4598    0.6472 O.2       1 <0>        -0.5074
     20 C15        -0.0018    1.7810   -0.0811 C.3       1 <0>        -0.0815
     21 C16        -0.8128    2.2008   -1.3087 C.3       1 <0>        -0.1174
     22 C17         0.0732    2.1296   -2.5540 C.3       1 <0>        -0.1596
     23 C18        -0.8376    1.9999    1.1815 C.3       1 <0>        -0.1109
     24 C19        -1.0859    3.4971    1.3757 C.3       1 <0>        -0.1548
     25 H3          3.6750   -4.0110  -10.9880 H         1 <0>         0.0572
     26 H4          5.3783   -3.7422  -10.5468 H         1 <0>         0.0542
     27 H5          4.6699   -5.3694  -10.4108 H         1 <0>         0.0542
     28 H6          4.8532   -4.2899   -8.1861 H         1 <0>         0.0625
     29 H7          3.1499   -4.5587   -8.6273 H         1 <0>         0.0621
     30 H8          2.3808   -1.0486   -9.4803 H         1 <0>         0.0553
     31 H9          2.7893   -2.3461  -10.6282 H         1 <0>         0.0606
     32 H10         1.7012   -2.6788   -9.2595 H         1 <0>         0.0551
     33 H11         5.1243   -0.8236   -7.0875 H         1 <0>         0.1280
     34 H12         4.6462   -0.3011   -4.7302 H         1 <0>         0.1300
     35 H13         1.3087   -2.9689   -4.8233 H         1 <0>         0.1251
     36 H14         1.7880   -3.4793   -7.1831 H         1 <0>         0.1229
     37 H15         1.7029   -3.0457   -2.7721 H         1 <0>         0.0841
     38 H16         0.6502   -1.7044   -3.2829 H         1 <0>         0.0721
     39 H17         3.5308   -1.2103   -1.0154 H         1 <0>         0.0769
     40 H18         2.6307   -1.4584    0.5001 H         1 <0>         0.0637
     41 H19         2.9664   -2.8391   -0.5719 H         1 <0>         0.0751
     42 H20         0.9069    2.3803   -0.0237 H         1 <0>         0.1097
     43 H21        -1.6633    1.5298   -1.4291 H         1 <0>         0.0659
     44 H22        -1.1713    3.2215   -1.1757 H         1 <0>         0.0828
     45 H23         0.9884    2.6960   -2.3816 H         1 <0>         0.0577
     46 H24         0.3236    1.0895   -2.7629 H         1 <0>         0.0699
     47 H25        -0.4611    2.5527   -3.4047 H         1 <0>         0.0555
     48 H26        -1.7921    1.4836    1.0794 H         1 <0>         0.0710
     49 H27        -0.3018    1.6055    2.0449 H         1 <0>         0.0730
     50 H28        -0.1355    4.0045    1.5414 H         1 <0>         0.0570
     51 H29        -1.5648    3.9044    0.4853 H         1 <0>         0.0602
     52 H30        -1.7342    3.6490    2.2387 H         1 <0>         0.0612
@<TRIPOS>BOND
     1    1    2 1
     2    1   25 1
     3    1   26 1
     4    1   27 1
     5    2    3 1
     6    2   28 1
     7    2   29 1
     8    3    4 1
     9    3    5 1
    10    3    6 1
    11    5   30 1
    12    5   31 1
    13    5   32 1
    14    6   11 ar
    15    6    7 ar
    16    7    8 ar
    17    7   33 1
    18    8    9 ar
    19    8   34 1
    20    9   10 ar
    21    9   12 1
    22   10   11 ar
    23   10   35 1
    24   11   36 1
    25   12   13 1
    26   13   14 1
    27   13   37 1
    28   13   38 1
    29   14   15 1
    30   14   16 1
    31   14   17 1
    32   16   39 1
    33   16   40 1
    34   16   41 1
    35   17   18 1
    36   18   19 2
    37   18   20 1
    38   20   21 1
    39   20   23 1
    40   20   42 1
    41   21   22 1
    42   21   43 1
    43   21   44 1
    44   22   45 1
    45   22   46 1
    46   22   47 1
    47   23   24 1
    48   23   48 1
    49   23   49 1
    50   24   50 1
    51   24   51 1
    52   24   52 1
@<TRIPOS>MOLECULE
ZINC20560526
   41    41     0     0     0
SMALL
USER_CHARGES
N-[(1R,3S)-1-ethyl-3-methyl-pentyl]-2-(trifluoromethyl)aniline
@<TRIPOS>ATOM
      1 C1         -0.5080   -3.8086   -1.8970 C.3       1 <0>        -0.1556
      2 C2         -0.6499   -2.3005   -1.6815 C.3       1 <0>        -0.1198
      3 C3         -1.3964   -2.0405   -0.3715 C.3       1 <0>        -0.0932
      4 H1         -0.8805   -2.5547    0.4528 H         1 <0>         0.0742
      5 C4         -2.8275   -2.5694   -0.4864 C.3       1 <0>        -0.1513
      6 C5         -1.4293   -0.5364   -0.0930 C.3       1 <0>        -0.1235
      7 C6         -0.0078   -0.0352    0.1697 C.3       1 <0>         0.1488
      8 H2          0.6577   -0.3026   -0.6643 H         1 <0>         0.0860
      9 C7         -0.0315    1.4807    0.3755 C.3       1 <0>        -0.1403
     10 C8          1.4014    1.9990    0.5140 C.3       1 <0>        -0.1610
     11 N1          0.5241   -0.6829    1.3712 N.pl3     1 <0>        -0.7425
     12 C9          1.9042   -0.8187    1.5385 C.ar      1 <0>         0.2771
     13 C10         2.7738   -0.3401    0.5664 C.ar      1 <0>        -0.2052
     14 C11         4.1375   -0.4756    0.7352 C.ar      1 <0>        -0.0432
     15 C12         4.6381   -1.0865    1.8706 C.ar      1 <0>        -0.1845
     16 C13         3.7755   -1.5639    2.8400 C.ar      1 <0>        -0.0271
     17 C14         2.4104   -1.4274    2.6797 C.ar      1 <0>        -0.2722
     18 C15         1.4711   -1.9425    3.7397 C.3       1 <0>         0.5121
     19 F1          2.2111   -2.5089    4.7831 F         1 <0>        -0.1771
     20 F2          0.7013   -0.8845    4.2347 F         1 <0>        -0.1805
     21 F3          0.6290   -2.9124    3.1852 F         1 <0>        -0.1804
     22 H3          0.0287   -3.9955   -2.8388 H         1 <0>         0.0528
     23 H4         -1.5065   -4.2674   -1.9467 H         1 <0>         0.0565
     24 H5          0.0558   -4.2471   -1.0604 H         1 <0>         0.0533
     25 H6          0.3486   -1.8417   -1.6318 H         1 <0>         0.0610
     26 H7         -1.2137   -1.8620   -2.5181 H         1 <0>         0.0611
     27 H8         -3.3642   -2.3825    0.4554 H         1 <0>         0.0534
     28 H9         -2.8038   -3.6508   -0.6865 H         1 <0>         0.0585
     29 H10        -3.3434   -2.0552   -1.3107 H         1 <0>         0.0545
     30 H11        -1.8481   -0.0113   -0.9641 H         1 <0>         0.0804
     31 H12        -2.0561   -0.3405    0.7894 H         1 <0>         0.0700
     32 H13        -0.5131    1.9606   -0.4892 H         1 <0>         0.0719
     33 H14        -0.5971    1.7180    1.2886 H         1 <0>         0.0673
     34 H15         1.3844    3.0889    0.6620 H         1 <0>         0.0523
     35 H16         1.9670    1.7617   -0.3991 H         1 <0>         0.0571
     36 H17         1.8829    1.5190    1.3787 H         1 <0>         0.0652
     37 H18        -0.1633   -1.0623    2.1416 H         1 <0>         0.4161
     38 H19         2.3836    0.1370   -0.3204 H         1 <0>         0.1384
     39 H20         4.8141   -0.1037   -0.0200 H         1 <0>         0.1280
     40 H21         5.7052   -1.1905    2.0005 H         1 <0>         0.1281
     41 H22         4.1696   -2.0405    3.7254 H         1 <0>         0.1334
@<TRIPOS>BOND
     1    1    2 1
     2    1   22 1
     3    1   23 1
     4    1   24 1
     5    2    3 1
     6    2   25 1
     7    2   26 1
     8    3    4 1
     9    3    5 1
    10    3    6 1
    11    5   27 1
    12    5   28 1
    13    5   29 1
    14    6    7 1
    15    6   30 1
    16    6   31 1
    17    7    8 1
    18    7    9 1
    19    7   11 1
    20    9   10 1
    21    9   32 1
    22    9   33 1
    23   10   34 1
    24   10   35 1
    25   10   36 1
    26   11   12 1
    27   11   37 1
    28   12   17 ar
    29   12   13 ar
    30   13   14 ar
    31   13   38 1
    32   14   15 ar
    33   14   39 1
    34   15   16 ar
    35   15   40 1
    36   16   17 ar
    37   16   41 1
    38   17   18 1
    39   18   19 1
    40   18   20 1
    41   18   21 1
@<TRIPOS>MOLECULE
ZINC37067691
   40    40     0     0     0
SMALL
USER_CHARGES

@<TRIPOS>ATOM
      1 C1          0.2617    1.5211   -0.1329 C.3       1 <0>        -0.1728
      2 C2          0.1329   -0.0021   -0.0666 C.3       1 <0>         0.1472
      3 H1          0.6490   -0.4477   -0.9170 H         1 <0>         0.0831
      4 C3          0.7588   -0.5107    1.2335 C.3       1 <0>        -0.1147
      5 C4          0.7628   -2.0407    1.2331 C.3       1 <0>         0.1121
      6 C5          1.5752   -2.5483    0.0401 C.3       1 <0>        -0.1820
      7 C6          1.3918   -2.5494    2.5318 C.3       1 <0>        -0.1797
      8 O1         -0.5796   -2.5206    1.1341 O.3       1 <0>        -0.3699
      9 C7         -0.6883   -3.9454    1.1255 C.3       1 <0>         0.0267
     10 N1         -1.2835   -0.3745   -0.1052 N.pl3     1 <0>        -0.7163
     11 C8         -1.9392   -0.5069   -1.3350 C.ar      1 <0>         0.2451
     12 C9         -1.2455   -0.2907   -2.5185 C.ar      1 <0>        -0.1893
     13 C10        -1.8919   -0.4216   -3.7315 C.ar      1 <0>        -0.0290
     14 C11        -3.2363   -0.7696   -3.7681 C.ar      1 <0>        -0.1738
     15 C12        -3.9300   -0.9858   -2.5841 C.ar      1 <0>        -0.0665
     16 C13        -3.2818   -0.8600   -1.3715 C.ar      1 <0>        -0.1763
     17 S1         -4.0617   -0.9362   -5.3159 S.3       1 <0>        -0.0384
     18 C14        -5.7581   -1.3907   -4.8620 C.3       1 <0>         0.4530
     19 F1         -6.3166   -0.3795   -4.0730 F         1 <0>        -0.1651
     20 F2         -6.5234   -1.5537   -6.0217 F         1 <0>        -0.1477
     21 F3         -5.7426   -2.5897   -4.1412 F         1 <0>        -0.1653
     22 H2          1.3155    1.7982   -0.1042 H         1 <0>         0.0645
     23 H3         -0.1842    1.8835   -1.0591 H         1 <0>         0.0616
     24 H4         -0.2545    1.9667    0.7175 H         1 <0>         0.0594
     25 H5          1.7825   -0.1447    1.3114 H         1 <0>         0.0926
     26 H6          0.1781   -0.1492    2.0821 H         1 <0>         0.0774
     27 H7          2.5991   -2.1823    0.1156 H         1 <0>         0.0668
     28 H8          1.5780   -3.6383    0.0398 H         1 <0>         0.0603
     29 H9          1.1271   -2.1859   -0.8851 H         1 <0>         0.0671
     30 H10         0.7577   -2.2743    3.3747 H         1 <0>         0.0645
     31 H11         1.4879   -3.6343    2.4884 H         1 <0>         0.0601
     32 H12         2.3777   -2.1021    2.6576 H         1 <0>         0.0672
     33 H13        -0.1397   -4.3465    0.2733 H         1 <0>         0.0424
     34 H14        -0.2704   -4.3473    2.0485 H         1 <0>         0.0414
     35 H15        -1.7379   -4.2292    1.0481 H         1 <0>         0.0830
     36 H16        -1.7669   -0.5294    0.7214 H         1 <0>         0.4053
     37 H17        -0.2005   -0.0198   -2.4900 H         1 <0>         0.1297
     38 H18        -1.3525   -0.2531   -4.6519 H         1 <0>         0.1290
     39 H19        -4.9752   -1.2564   -2.6122 H         1 <0>         0.1198
     40 H20        -3.8199   -1.0324   -0.4511 H         1 <0>         0.1273
@<TRIPOS>BOND
     1    1    2 1
     2    1   22 1
     3    1   23 1
     4    1   24 1
     5    2    3 1
     6    2    4 1
     7    2   10 1
     8    4    5 1
     9    4   25 1
    10    4   26 1
    11    5    6 1
    12    5    7 1
    13    5    8 1
    14    6   27 1
    15    6   28 1
    16    6   29 1
    17    7   30 1
    18    7   31 1
    19    7   32 1
    20    8    9 1
    21    9   33 1
    22    9   34 1
    23    9   35 1
    24   10   11 1
    25   10   36 1
    26   11   16 ar
    27   11   12 ar
    28   12   13 ar
    29   12   37 1
    30   13   14 ar
    31   13   38 1
    32   14   15 ar
    33   14   17 1
    34   15   16 ar
    35   15   39 1
    36   16   40 1
    37   17   18 1
    38   18   19 1
    39   18   20 1
    40   18   21 1
@<TRIPOS>MOLECULE
ZINC36995241
   54    54     0     0     0
SMALL
USER_CHARGES

@<TRIPOS>ATOM
      1 C1         -0.5206    1.6423   -0.0917 C.3       1 <0>        -0.1722
      2 C2         -0.3391    0.1232   -0.1102 C.3       1 <0>         0.1510
      3 H1         -1.3164   -0.3595   -0.1090 H         1 <0>         0.0796
      4 C3          0.4290   -0.2835   -1.3693 C.3       1 <0>        -0.1144
      5 C4          0.4839   -1.8096   -1.4627 C.3       1 <0>         0.1136
      6 C5         -0.9391   -2.3682   -1.5261 C.3       1 <0>        -0.1810
      7 C6          1.2480   -2.2163   -2.7243 C.3       1 <0>        -0.1793
      8 O1          1.1504   -2.3336   -0.3124 O.3       1 <0>        -0.3654
      9 C7          1.2559   -3.7586   -0.3005 C.3       1 <0>         0.0268
     10 N1          0.4126   -0.2933    1.0763 N.pl3     1 <0>        -0.7232
     11 C8         -0.2553   -0.5220    2.2815 C.ar      1 <0>         0.2299
     12 C9         -1.6174   -0.2676    2.3818 C.ar      1 <0>        -0.2013
     13 C10        -2.2747   -0.4953    3.5746 C.ar      1 <0>        -0.0695
     14 C11        -1.5785   -0.9756    4.6689 C.ar      1 <0>        -0.1385
     15 C12        -0.2228   -1.2294    4.5727 C.ar      1 <0>        -0.0647
     16 C13         0.4397   -1.0097    3.3807 C.ar      1 <0>        -0.1501
     17 C14         1.9160   -1.2930    3.2748 C.3       1 <0>        -0.0422
     18 C15         2.6650   -0.5054    4.3516 C.3       1 <0>        -0.1441
     19 C16         2.1636   -2.7898    3.4727 C.3       1 <0>        -0.1393
     20 C17        -2.2991   -1.2224    5.9692 C.3       1 <0>        -0.0483
     21 C18        -2.9153    0.0865    6.4673 C.3       1 <0>        -0.1434
     22 C19        -3.4056   -2.2563    5.7509 C.3       1 <0>        -0.1431
     23 H2          0.4568    2.1249   -0.0929 H         1 <0>         0.0572
     24 H3         -1.0799    1.9521   -0.9745 H         1 <0>         0.0610
     25 H4         -1.0678    1.9320    0.8053 H         1 <0>         0.0609
     26 H5         -0.0765    0.1164   -2.2483 H         1 <0>         0.0899
     27 H6          1.4427    0.1142   -1.3209 H         1 <0>         0.0752
     28 H7         -1.4476   -1.9685   -2.4035 H         1 <0>         0.0653
     29 H8         -0.9000   -3.4554   -1.5926 H         1 <0>         0.0590
     30 H9         -1.4835   -2.0785   -0.6273 H         1 <0>         0.0677
     31 H10         2.2884   -1.9033   -2.6356 H         1 <0>         0.0640
     32 H11         1.2032   -3.2988   -2.8432 H         1 <0>         0.0594
     33 H12         0.7970   -1.7364   -3.5928 H         1 <0>         0.0662
     34 H13         1.8163   -4.0888   -1.1752 H         1 <0>         0.0400
     35 H14         1.7737   -4.0771    0.6042 H         1 <0>         0.0826
     36 H15         0.2581   -4.1970   -0.3216 H         1 <0>         0.0411
     37 H16         1.3742   -0.4102    1.0249 H         1 <0>         0.4011
     38 H17        -2.1615    0.1081    1.5279 H         1 <0>         0.1156
     39 H18        -3.3336   -0.2977    3.6533 H         1 <0>         0.1133
     40 H19         0.3180   -1.6038    5.4293 H         1 <0>         0.1140
     41 H20         2.2739   -0.9926    2.2900 H         1 <0>         0.0703
     42 H21         3.7328   -0.7102    4.2750 H         1 <0>         0.0535
     43 H22         2.4886    0.5610    4.2106 H         1 <0>         0.0531
     44 H23         2.3071   -0.8057    5.3364 H         1 <0>         0.0554
     45 H24         1.6301   -3.3509    2.7055 H         1 <0>         0.0548
     46 H25         3.2315   -2.9947    3.3961 H         1 <0>         0.0520
     47 H26         1.8058   -3.0901    4.4575 H         1 <0>         0.0532
     48 H27        -1.5931   -1.5968    6.7105 H         1 <0>         0.0707
     49 H28        -3.6213    0.4609    5.7260 H         1 <0>         0.0542
     50 H29        -3.4365   -0.0920    7.4078 H         1 <0>         0.0535
     51 H30        -2.1270    0.8231    6.6228 H         1 <0>         0.0539
     52 H31        -4.1116   -1.8819    5.0096 H         1 <0>         0.0541
     53 H32        -2.9666   -3.1888    5.3960 H         1 <0>         0.0536
     54 H33        -3.9268   -2.4348    6.6914 H         1 <0>         0.0535
@<TRIPOS>BOND
     1    1    2 1
     2    1   23 1
     3    1   24 1
     4    1   25 1
     5    2    3 1
     6    2    4 1
     7    2   10 1
     8    4    5 1
     9    4   26 1
    10    4   27 1
    11    5    6 1
    12    5    7 1
    13    5    8 1
    14    6   28 1
    15    6   29 1
    16    6   30 1
    17    7   31 1
    18    7   32 1
    19    7   33 1
    20    8    9 1
    21    9   34 1
    22    9   35 1
    23    9   36 1
    24   10   11 1
    25   10   37 1
    26   11   16 ar
    27   11   12 ar
    28   12   13 ar
    29   12   38 1
    30   13   14 ar
    31   13   39 1
    32   14   15 ar
    33   14   20 1
    34   15   16 ar
    35   15   40 1
    36   16   17 1
    37   17   18 1
    38   17   19 1
    39   17   41 1
    40   18   42 1
    41   18   43 1
    42   18   44 1
    43   19   45 1
    44   19   46 1
    45   19   47 1
    46   20   21 1
    47   20   22 1
    48   20   48 1
    49   21   49 1
    50   21   50 1
    51   21   51 1
    52   22   52 1
    53   22   53 1
    54   22   54 1
@<TRIPOS>MOLECULE
ZINC66154408
   49    50     0     0     0
SMALL
USER_CHARGES

@<TRIPOS>ATOM
      1 C1         -0.1789    1.3556    0.0276 C.3       1 <0>        -0.1543
      2 C2         -0.1355   -0.1647   -0.1392 C.3       1 <0>        -0.1135
      3 C3          0.7073   -0.5193   -1.3659 C.3       1 <0>        -0.0460
      4 H1          1.6933   -0.0639   -1.2733 H         1 <0>         0.0846
      5 C4          0.0189    0.0067   -2.6270 C.3       1 <0>        -0.1442
      6 C5          0.8523   -2.0164   -1.4600 C.ar      1 <0>        -0.1050
      7 C6         -0.2691   -2.8128   -1.5902 C.ar      1 <0>        -0.0784
      8 C7         -0.1368   -4.1862   -1.6761 C.ar      1 <0>        -0.1542
      9 C8          1.1177   -4.7664   -1.6324 C.ar      1 <0>        -0.0849
     10 C9          2.2420   -3.9746   -1.5028 C.ar      1 <0>        -0.2087
     11 C10         2.1122   -2.5955   -1.4217 C.ar      1 <0>         0.1324
     12 O1          3.2172   -1.8139   -1.2998 O.3       1 <0>        -0.2990
     13 C11         4.4774   -2.4815   -1.2099 C.3       1 <0>         0.0689
     14 H2          4.4089   -3.4541   -1.6973 H         1 <0>         0.0847
     15 C12         4.8490   -2.6736    0.2618 C.3       1 <0>        -0.1402
     16 C13         3.8428   -3.6177    0.9228 C.3       1 <0>        -0.1575
     17 C14         5.5513   -1.6391   -1.9014 C.3       1 <0>         0.1271
     18 N1          5.1955   -1.4552   -3.3105 N.pl3     1 <0>        -0.7391
     19 C15         6.0307   -0.7144   -4.1512 C.ar      1 <0>         0.2290
     20 C16         7.2013   -0.1567   -3.6538 C.ar      1 <0>        -0.1899
     21 C17         8.0249    0.5744   -4.4873 C.ar      1 <0>        -0.0650
     22 C18         7.6852    0.7523   -5.8160 C.ar      1 <0>        -0.1685
     23 C19         6.5207    0.1987   -6.3153 C.ar      1 <0>        -0.0617
     24 C20         5.6947   -0.5390   -5.4884 C.ar      1 <0>        -0.1140
     25 Cl1         4.2360   -1.2393   -6.1173 Cl        1 <0>        -0.0739
     26 H3          0.8340    1.7356    0.1605 H         1 <0>         0.0537
     27 H4         -0.6224    1.8059   -0.8605 H         1 <0>         0.0571
     28 H5         -0.7793    1.6082    0.9015 H         1 <0>         0.0536
     29 H6          0.3080   -0.6151    0.7489 H         1 <0>         0.0604
     30 H7         -1.1484   -0.5447   -0.2721 H         1 <0>         0.0615
     31 H8         -0.9670   -0.4488   -2.7196 H         1 <0>         0.0544
     32 H9         -0.0859    1.0895   -2.5589 H         1 <0>         0.0602
     33 H10         0.6194   -0.2460   -3.5009 H         1 <0>         0.0536
     34 H11        -1.2500   -2.3621   -1.6246 H         1 <0>         0.1267
     35 H12        -1.0147   -4.8071   -1.7771 H         1 <0>         0.1225
     36 H13         1.2184   -5.8397   -1.6994 H         1 <0>         0.1227
     37 H14         3.2215   -4.4282   -1.4687 H         1 <0>         0.1299
     38 H15         5.8489   -3.1020    0.3311 H         1 <0>         0.0814
     39 H16         4.8308   -1.7095    0.7699 H         1 <0>         0.0784
     40 H17         2.8429   -3.1893    0.8535 H         1 <0>         0.0610
     41 H18         3.8610   -4.5818    0.4147 H         1 <0>         0.0567
     42 H19         4.1075   -3.7545    1.9713 H         1 <0>         0.0605
     43 H20         5.6198   -0.6666   -1.4140 H         1 <0>         0.0744
     44 H21         6.5126   -2.1484   -1.8328 H         1 <0>         0.0816
     45 H22         4.3802   -1.8476   -3.6601 H         1 <0>         0.4049
     46 H23         7.4672   -0.2944   -2.6161 H         1 <0>         0.1287
     47 H24         8.9353    1.0082   -4.1007 H         1 <0>         0.1275
     48 H25         8.3309    1.3251   -6.4651 H         1 <0>         0.1281
     49 H26         6.2581    0.3398   -7.3534 H         1 <0>         0.1315
@<TRIPOS>BOND
     1    1    2 1
     2    1   26 1
     3    1   27 1
     4    1   28 1
     5    2    3 1
     6    2   29 1
     7    2   30 1
     8    3    4 1
     9    3    5 1
    10    3    6 1
    11    5   31 1
    12    5   32 1
    13    5   33 1
    14    6   11 ar
    15    6    7 ar
    16    7    8 ar
    17    7   34 1
    18    8    9 ar
    19    8   35 1
    20    9   10 ar
    21    9   36 1
    22   10   11 ar
    23   10   37 1
    24   11   12 1
    25   12   13 1
    26   13   14 1
    27   13   15 1
    28   13   17 1
    29   15   16 1
    30   15   38 1
    31   15   39 1
    32   16   40 1
    33   16   41 1
    34   16   42 1
    35   17   18 1
    36   17   43 1
    37   17   44 1
    38   18   19 1
    39   18   45 1
    40   19   24 ar
    41   19   20 ar
    42   20   21 ar
    43   20   46 1
    44   21   22 ar
    45   21   47 1
    46   22   23 ar
    47   22   48 1
    48   23   24 ar
    49   23   49 1
    50   24   25 1
@<TRIPOS>MOLECULE
ZINC08898823
   38    41     0     0     0
SMALL
USER_CHARGES
2-[[7-(4-bromophenyl)-5-oxo-9-thia-2,4-diazabicyclo[4.3.0]nona-2,7,10-trien-4-yl]methyl]benzonitrile
@<TRIPOS>ATOM
      1 C1          1.9262   -3.7314   -3.3614 C.ar      1 <0>        -0.0883
      2 C2          0.7357   -3.5555   -4.0446 C.ar      1 <0>        -0.1067
      3 C3         -0.3282   -2.9268   -3.4320 C.ar      1 <0>        -0.0710
      4 C4         -0.2036   -2.4721   -2.1175 C.ar      1 <0>        -0.0192
      5 C5          1.0022   -2.6477   -1.4362 C.ar      1 <0>        -0.0748
      6 C6          2.0582   -3.2787   -2.0609 C.ar      1 <0>        -0.0834
      7 C7          1.1481   -2.1548   -0.0196 C.3       1 <0>         0.1269
      8 N1          1.4410   -0.7194   -0.0297 N.am      1 <0>        -0.5260
      9 C8          0.4248    0.1683    0.1211 C.2       1 <0>         0.3856
     10 N2          0.6466    1.4553    0.1178 N.2       1 <0>        -0.4848
     11 C9          1.8769    1.9385   -0.0341 C.2       1 <0>         0.1030
     12 C10         2.9897    1.0976   -0.1975 C.2       1 <0>        -0.2392
     13 C11         2.7122   -0.3067   -0.1888 C.2       1 <0>         0.5539
     14 O1          3.6134   -1.1165   -0.3238 O.2       1 <0>        -0.5033
     15 C12         4.2663    1.7849   -0.3514 C.2       1 <0>        -0.0214
     16 C13         4.2842    3.1394   -0.3266 C.2       1 <0>        -0.1760
     17 S1          2.5705    3.5705   -0.0928 S.3       1 <0>         0.1634
     18 C14         5.5209    1.0162   -0.5322 C.ar      1 <0>        -0.0248
     19 C15         5.8359   -0.0241    0.3409 C.ar      1 <0>        -0.0531
     20 C16         7.0027   -0.7395    0.1652 C.ar      1 <0>        -0.0924
     21 C17         7.8651   -0.4187   -0.8689 C.ar      1 <0>        -0.0832
     22 C18         7.5595    0.6164   -1.7357 C.ar      1 <0>        -0.0962
     23 C19         6.3929    1.3348   -1.5724 C.ar      1 <0>        -0.0972
     24 Br1         9.4661   -1.3984   -1.0987 Br        1 <0>        -0.0524
     25 C20        -1.3058   -1.8233   -1.4733 C.1       1 <0>         0.2441
     26 N3         -2.1802   -1.3087   -0.9623 N.1       1 <0>        -0.4006
     27 H1          2.7560   -4.2247   -3.8457 H         1 <0>         0.1363
     28 H2          0.6393   -3.9117   -5.0596 H         1 <0>         0.1386
     29 H3         -1.2567   -2.7899   -3.9664 H         1 <0>         0.1377
     30 H4          2.9902   -3.4192   -1.5335 H         1 <0>         0.1432
     31 H5          1.9634   -2.6886    0.4688 H         1 <0>         0.1233
     32 H6          0.2203   -2.3324    0.5243 H         1 <0>         0.1074
     33 H7         -0.5841   -0.1962    0.2463 H         1 <0>         0.2053
     34 H8          5.1332    3.7997   -0.4246 H         1 <0>         0.2013
     35 H9          5.1661   -0.2721    1.1510 H         1 <0>         0.1263
     36 H10         7.2457   -1.5482    0.8385 H         1 <0>         0.1320
     37 H11         8.2357    0.8623   -2.5412 H         1 <0>         0.1338
     38 H12         6.1558    2.1426   -2.2488 H         1 <0>         0.1316
@<TRIPOS>BOND
     1    1    6 ar
     2    1    2 ar
     3    1   27 1
     4    2    3 ar
     5    2   28 1
     6    3    4 ar
     7    3   29 1
     8    4    5 ar
     9    4   25 1
    10    5    6 ar
    11    5    7 1
    12    6   30 1
    13    7    8 1
    14    7   31 1
    15    7   32 1
    16    8   13 am
    17    8    9 1
    18    9   10 2
    19    9   33 1
    20   10   11 1
    21   11   17 1
    22   11   12 2
    23   12   13 1
    24   12   15 1
    25   13   14 2
    26   15   16 2
    27   15   18 1
    28   16   17 1
    29   16   34 1
    30   18   23 ar
    31   18   19 ar
    32   19   20 ar
    33   19   35 1
    34   20   21 ar
    35   20   36 1
    36   21   22 ar
    37   21   24 1
    38   22   23 ar
    39   22   37 1
    40   23   38 1
    41   25   26 3
@<TRIPOS>MOLECULE
ZINC01446652
   53    56     0     0     0
SMALL
USER_CHARGES
(5E)-3-isobutyl-5-[[1-phenyl-3-(p-tolyl)pyrazol-4-yl]methylene]-2-thioxo-thiazolidin-4-one
@<TRIPOS>ATOM
      1 C1         -3.8452   -3.7930    0.9204 C.3       1 <0>        -0.1204
      2 C2         -2.7805   -2.7657    0.6340 C.ar      1 <0>        -0.0681
      3 C3         -1.7785   -3.0477   -0.2771 C.ar      1 <0>        -0.1203
      4 C4         -0.8011   -2.1108   -0.5438 C.ar      1 <0>        -0.0782
      5 C5         -0.8249   -0.8780    0.1070 C.ar      1 <0>        -0.0334
      6 C6         -1.8343   -0.6015    1.0282 C.ar      1 <0>        -0.0881
      7 C7         -2.8093   -1.5443    1.2829 C.ar      1 <0>        -0.1193
      8 C8          0.2222    0.1323   -0.1747 C.2       1 <0>         0.1690
      9 C9          0.0427    1.5887   -0.2101 C.2       1 <0>        -0.2468
     10 C10         1.2806    2.1263   -0.5102 C.2       1 <0>         0.1518
     11 N1          2.1492    1.1066   -0.6489 N.pl3     1 <0>        -0.3056
     12 N2          1.4870   -0.1064   -0.4407 N.2       1 <0>        -0.2743
     13 C11         3.5093    1.2412   -0.9551 C.ar      1 <0>         0.1484
     14 C12         4.0580    2.5026   -1.1462 C.ar      1 <0>        -0.1343
     15 C13         5.4008    2.6323   -1.4419 C.ar      1 <0>        -0.0918
     16 C14         6.1962    1.5072   -1.5595 C.ar      1 <0>        -0.1223
     17 C15         5.6515    0.2495   -1.3760 C.ar      1 <0>        -0.0954
     18 C16         4.3107    0.1134   -1.0739 C.ar      1 <0>        -0.1134
     19 C17        -1.2037    2.3267    0.0207 C.2       1 <0>         0.1538
     20 C18        -1.1803    3.5051    0.6966 C.2       1 <0>        -0.2738
     21 C19        -0.0637    4.1638    1.3983 C.2       1 <0>         0.5428
     22 O1          1.0464    3.6656    1.4417 O.2       1 <0>        -0.4577
     23 N3         -0.3275    5.3223    1.9786 N.am      1 <0>        -0.5183
     24 C20        -1.5589    5.8704    1.9289 C.2       1 <0>         0.2814
     25 S1         -2.0942    7.3470    2.6103 S.2       1 <0>        -0.3398
     26 S2         -2.4931    4.6866    0.9727 S.3       1 <0>         0.0717
     27 C21         0.7414    6.0259    2.6918 C.3       1 <0>         0.0865
     28 C22         1.4702    6.9609    1.7246 C.3       1 <0>        -0.1065
     29 C23         2.5030    7.7866    2.4943 C.3       1 <0>        -0.1427
     30 C24         2.1776    6.1327    0.6501 C.3       1 <0>        -0.1468
     31 H1         -3.5240   -4.4290    1.7453 H         1 <0>         0.0745
     32 H2         -4.7732   -3.2890    1.1904 H         1 <0>         0.0699
     33 H3         -4.0086   -4.4042    0.0328 H         1 <0>         0.0695
     34 H4         -1.7613   -4.0028   -0.7809 H         1 <0>         0.1289
     35 H5         -0.0195   -2.3318   -1.2556 H         1 <0>         0.1288
     36 H6         -1.8553    0.3500    1.5387 H         1 <0>         0.1246
     37 H7         -3.5941   -1.3298    1.9932 H         1 <0>         0.1299
     38 H8          1.5101    3.1764   -0.6145 H         1 <0>         0.1856
     39 H9          3.4363    3.3814   -1.0588 H         1 <0>         0.1286
     40 H10         5.8293    3.6132   -1.5855 H         1 <0>         0.1352
     41 H11         7.2451    1.6110   -1.7949 H         1 <0>         0.1317
     42 H12         6.2753   -0.6273   -1.4685 H         1 <0>         0.1349
     43 H13         3.8861   -0.8692   -0.9300 H         1 <0>         0.1394
     44 H14        -2.1401    1.9335   -0.3467 H         1 <0>         0.1598
     45 H15         0.3120    6.6089    3.5066 H         1 <0>         0.1127
     46 H16         1.4468    5.3003    3.0967 H         1 <0>         0.1041
     47 H17         0.7497    7.6289    1.2527 H         1 <0>         0.0806
     48 H18         3.2236    7.1186    2.9662 H         1 <0>         0.0587
     49 H19         3.0223    8.4527    1.8053 H         1 <0>         0.0644
     50 H20         1.9991    8.3766    3.2598 H         1 <0>         0.0636
     51 H21         1.4417    5.5445    0.1018 H         1 <0>         0.0414
     52 H22         2.6968    6.7988   -0.0389 H         1 <0>         0.0605
     53 H23         2.8981    5.4647    1.1220 H         1 <0>         0.0647
@<TRIPOS>BOND
     1    1    2 1
     2    1   31 1
     3    1   32 1
     4    1   33 1
     5    2    7 ar
     6    2    3 ar
     7    3    4 ar
     8    3   34 1
     9    4    5 ar
    10    4   35 1
    11    5    6 ar
    12    5    8 1
    13    6    7 ar
    14    6   36 1
    15    7   37 1
    16    8   12 2
    17    8    9 1
    18    9   10 2
    19    9   19 1
    20   10   11 1
    21   10   38 1
    22   11   12 1
    23   11   13 1
    24   13   18 ar
    25   13   14 ar
    26   14   15 ar
    27   14   39 1
    28   15   16 ar
    29   15   40 1
    30   16   17 ar
    31   16   41 1
    32   17   18 ar
    33   17   42 1
    34   18   43 1
    35   19   20 2
    36   19   44 1
    37   20   26 1
    38   20   21 1
    39   21   22 2
    40   21   23 am
    41   23   24 1
    42   23   27 1
    43   24   25 2
    44   24   26 1
    45   27   28 1
    46   27   45 1
    47   27   46 1
    48   28   29 1
    49   28   30 1
    50   28   47 1
    51   29   48 1
    52   29   49 1
    53   29   50 1
    54   30   51 1
    55   30   52 1
    56   30   53 1
@<TRIPOS>MOLECULE
ZINC20614024
   48    51     0     0     0
SMALL
USER_CHARGES
1-[(2-chloro-4-fluoro-phenyl)methyl]-4-(2-naphthylsulfonyl)piperazine
@<TRIPOS>ATOM
      1 C1         -5.3917    5.6271   -6.1685 C.ar      1 <0>        -0.0931
      2 C2         -5.2744    6.5251   -5.1091 C.ar      1 <0>        -0.1213
      3 C3         -4.2691    6.4079   -4.1993 C.ar      1 <0>        -0.0904
      4 C4         -3.3336    5.3669   -4.3269 C.ar      1 <0>        -0.0792
      5 C5         -2.2818    5.2139   -3.4074 C.ar      1 <0>         0.0183
      6 C6         -1.3942    4.1941   -3.5632 C.ar      1 <0>        -0.6724
      7 C7         -1.5085    3.2994   -4.6257 C.ar      1 <0>        -0.0449
      8 C8         -2.5173    3.4130   -5.5320 C.ar      1 <0>        -0.1163
      9 C9         -3.4529    4.4539   -5.4042 C.ar      1 <0>        -0.0123
     10 C10        -4.5041    4.6073   -6.3242 C.ar      1 <0>        -0.1193
     11 S1         -0.0767    4.0063   -2.4084 S.o2      1 <0>         2.6891
     12 O1          0.1393    5.2849   -1.8272 O.2       1 <0>        -0.9541
     13 O2          0.9518    3.2905   -3.0785 O.2       1 <0>        -0.9516
     14 N1         -0.6255    3.0216   -1.1953 N.pl3     1 <0>        -0.9982
     15 C11        -0.4639    1.5620   -1.2765 C.3       1 <0>         0.1212
     16 C12         0.1808    1.0705    0.0239 C.3       1 <0>         0.0414
     17 N2         -0.6081    1.5454    1.1685 N.3       1 <0>        -0.5258
     18 C13        -0.6099    3.0125    1.2425 C.3       1 <0>         0.0460
     19 C14        -1.2870    3.5835   -0.0079 C.3       1 <0>         0.1200
     20 C15        -0.1234    0.9550    2.4232 C.3       1 <0>         0.0921
     21 C16        -0.3667   -0.5321    2.4056 C.ar      1 <0>        -0.0862
     22 C17         0.6899   -1.4028    2.2135 C.ar      1 <0>        -0.0734
     23 C18         0.4683   -2.7666    2.1980 C.ar      1 <0>        -0.1498
     24 C19        -0.8128   -3.2621    2.3750 C.ar      1 <0>         0.1152
     25 C20        -1.8707   -2.3904    2.5669 C.ar      1 <0>        -0.1508
     26 C21        -1.6463   -1.0255    2.5874 C.ar      1 <0>         0.0160
     27 Cl1        -2.9712    0.0684    2.8357 Cl        1 <0>        -0.0419
     28 F1         -1.0299   -4.5954    2.3600 F         1 <0>        -0.1317
     29 H1         -6.1989    5.7426   -6.8768 H         1 <0>         0.1290
     30 H2         -5.9917    7.3262   -5.0089 H         1 <0>         0.1294
     31 H3         -4.1905    7.1114   -3.3836 H         1 <0>         0.1338
     32 H4         -2.1782    5.9023   -2.5816 H         1 <0>         0.1449
     33 H5         -0.7881    2.5014   -4.7289 H         1 <0>         0.1386
     34 H6         -2.5955    2.7101   -6.3482 H         1 <0>         0.1367
     35 H7         -4.6075    3.9190   -7.1500 H         1 <0>         0.1329
     36 H8         -1.4491    1.0908   -1.4083 H         1 <0>         0.0799
     37 H9          0.1799    1.3114   -2.1325 H         1 <0>         0.0989
     38 H10         0.2078   -0.0292    0.0269 H         1 <0>         0.0905
     39 H11         1.2060    1.4626    0.0960 H         1 <0>         0.0444
     40 H12        -1.1614    3.3337    2.1384 H         1 <0>         0.0927
     41 H13         0.4260    3.3781    1.2990 H         1 <0>         0.0446
     42 H14        -1.1914    4.6793   -0.0191 H         1 <0>         0.0991
     43 H15        -2.3520    3.3082   -0.0167 H         1 <0>         0.0806
     44 H16         0.9543    1.1490    2.5274 H         1 <0>         0.0522
     45 H17        -0.6605    1.4044    3.2715 H         1 <0>         0.0951
     46 H18         1.6891   -1.0168    2.0758 H         1 <0>         0.1410
     47 H19         1.2942   -3.4462    2.0483 H         1 <0>         0.1428
     48 H20        -2.8701   -2.7757    2.7050 H         1 <0>         0.1462
@<TRIPOS>BOND
     1    1   10 ar
     2    1    2 ar
     3    1   29 1
     4    2    3 ar
     5    2   30 1
     6    3    4 ar
     7    3   31 1
     8    4    9 ar
     9    4    5 ar
    10    5    6 ar
    11    5   32 1
    12    6    7 ar
    13    6   11 1
    14    7    8 ar
    15    7   33 1
    16    8    9 ar
    17    8   34 1
    18    9   10 ar
    19   10   35 1
    20   11   12 2
    21   11   13 2
    22   11   14 1
    23   14   19 1
    24   14   15 1
    25   15   16 1
    26   15   36 1
    27   15   37 1
    28   16   17 1
    29   16   38 1
    30   16   39 1
    31   17   18 1
    32   17   20 1
    33   18   19 1
    34   18   40 1
    35   18   41 1
    36   19   42 1
    37   19   43 1
    38   20   21 1
    39   20   44 1
    40   20   45 1
    41   21   26 ar
    42   21   22 ar
    43   22   23 ar
    44   22   46 1
    45   23   24 ar
    46   23   47 1
    47   24   25 ar
    48   24   28 1
    49   25   26 ar
    50   25   48 1
    51   26   27 1
@<TRIPOS>MOLECULE
ZINC38827834
   41    44     0     0     0
SMALL
USER_CHARGES

@<TRIPOS>ATOM
      1 C1         -0.0167    1.3829    0.0096 C.ar      1 <0>        -0.0916
      2 C2          1.1797    2.0767    0.0019 C.ar      1 <0>        -0.0560
      3 C3          2.3648    1.3845   -0.0131 C.ar      1 <0>        -0.1446
      4 C4          2.4236   -0.0277   -0.0212 C.ar      1 <0>         0.1136
      5 C5          1.1814   -0.7046   -0.0135 C.ar      1 <0>         0.0095
      6 C6          0.0021   -0.0041    0.0020 C.ar      1 <0>        -0.0984
      7 Cl1         1.1491   -2.4403   -0.0225 Cl        1 <0>        -0.0430
      8 N1          3.6644   -0.5616   -0.0359 N.2       1 <0>        -0.4981
      9 C7          4.7500    0.1766   -0.0423 C.2       1 <0>         0.3863
     10 S1          4.0834    1.8348   -0.0271 S.3       1 <0>         0.0079
     11 N2          6.0737   -0.2266   -0.0568 N.am      1 <0>        -0.5048
     12 C8          7.1441    0.7736   -0.0617 C.3       1 <0>         0.1407
     13 C9          7.5244    1.1094    1.3574 C.ar      1 <0>        -0.0790
     14 C10         6.8864    2.1340    2.0396 C.ar      1 <0>        -0.1516
     15 C11         7.2620    2.4133    3.3400 C.ar      1 <0>         0.1047
     16 N3          8.2145    1.7187    3.9309 N.ar      1 <0>        -0.4745
     17 C12         8.8426    0.7377    3.3128 C.ar      1 <0>         0.1038
     18 C13         8.5166    0.3972    2.0136 C.ar      1 <0>        -0.1533
     19 C14         6.3781   -1.5395   -0.0663 C.2       1 <0>         0.5542
     20 O1          5.4883   -2.3710   -0.0622 O.2       1 <0>        -0.4641
     21 C15         7.7304   -1.9514   -0.0810 C.2       1 <0>        -0.2491
     22 C16         8.0370   -3.2734   -0.0906 C.2       1 <0>         0.0706
     23 C17         9.3910   -3.6858   -0.1053 C.2       1 <0>        -0.2053
     24 C18         9.9150   -4.9739   -0.1224 C.2       1 <0>        -0.0933
     25 C19        11.2862   -5.0581   -0.1340 C.2       1 <0>        -0.1809
     26 C20        12.0176   -3.9157   -0.1281 C.2       1 <0>        -0.2240
     27 S2         10.8693   -2.6896   -0.1147 S.3       1 <0>         0.2009
     28 H1         -0.9561    1.9155    0.0260 H         1 <0>         0.1494
     29 H2          1.1814    3.1567    0.0074 H         1 <0>         0.1408
     30 H3         -0.9329   -0.5446    0.0084 H         1 <0>         0.1454
     31 H4          8.0123    0.3740   -0.5857 H         1 <0>         0.1211
     32 H5          6.7971    1.6745   -0.5677 H         1 <0>         0.1069
     33 H6          6.1060    2.7069    1.5608 H         1 <0>         0.1374
     34 H7          6.7699    3.2098    3.8783 H         1 <0>         0.1606
     35 H8          9.6179    0.1913    3.8293 H         1 <0>         0.1604
     36 H9          9.0312   -0.4104    1.5144 H         1 <0>         0.1370
     37 H10         8.5195   -1.2141   -0.0846 H         1 <0>         0.1315
     38 H11         7.2479   -4.0107   -0.0869 H         1 <0>         0.1533
     39 H12         9.2850   -5.8510   -0.1260 H         1 <0>         0.1483
     40 H13        11.7753   -6.0209   -0.1472 H         1 <0>         0.1381
     41 H14        13.0931   -3.8169   -0.1355 H         1 <0>         0.1891
@<TRIPOS>BOND
     1    1    6 ar
     2    1    2 ar
     3    1   28 1
     4    2    3 ar
     5    2   29 1
     6    3   10 1
     7    3    4 ar
     8    4    5 ar
     9    4    8 1
    10    5    6 ar
    11    5    7 1
    12    6   30 1
    13    8    9 2
    14    9   10 1
    15    9   11 1
    16   11   12 1
    17   11   19 am
    18   12   13 1
    19   12   31 1
    20   12   32 1
    21   13   18 ar
    22   13   14 ar
    23   14   15 ar
    24   14   33 1
    25   15   16 ar
    26   15   34 1
    27   16   17 ar
    28   17   18 ar
    29   17   35 1
    30   18   36 1
    31   19   20 2
    32   19   21 1
    33   21   22 2
    34   21   37 1
    35   22   23 1
    36   22   38 1
    37   23   27 1
    38   23   24 2
    39   24   25 1
    40   24   39 1
    41   25   26 2
    42   25   40 1
    43   26   27 1
    44   26   41 1
@<TRIPOS>MOLECULE
ZINC59334009
   44    45     0     0     0
SMALL
USER_CHARGES

@<TRIPOS>ATOM
      1 C1         -2.7351    0.5079    1.8809 C.3       1 <0>        -0.1190
      2 C2         -2.3744   -0.9329    1.6256 C.ar      1 <0>        -0.0726
      3 C3         -2.1875   -1.3796    0.3308 C.ar      1 <0>        -0.1252
      4 C4         -1.8567   -2.7011    0.0966 C.ar      1 <0>        -0.0862
      5 C5         -1.7122   -3.5759    1.1572 C.ar      1 <0>        -0.1010
      6 C6         -1.8982   -3.1290    2.4520 C.ar      1 <0>        -0.0869
      7 C7         -2.2248   -1.8064    2.6865 C.ar      1 <0>        -0.1248
      8 C8         -1.3525   -5.0169    0.9018 C.3       1 <0>         0.1103
      9 O1          0.0694   -5.1599    0.9006 O.3       1 <0>        -0.3107
     10 C9          0.5632   -6.4051    0.6831 C.ar      1 <0>         0.1545
     11 C10         0.7893   -7.2590    1.7590 C.ar      1 <0>        -0.0516
     12 C11         1.2900   -8.5230    1.5443 C.ar      1 <0>        -0.0679
     13 C12         1.5719   -8.9501    0.2385 C.ar      1 <0>        -0.0829
     14 C13         1.3416   -8.0857   -0.8413 C.ar      1 <0>        -0.0416
     15 C14         0.8360   -6.8254   -0.6149 C.ar      1 <0>        -0.1098
     16 Br1         0.5180   -5.6608   -2.0703 Br        1 <0>        -0.0126
     17 C15         2.1052  -10.2936    0.0036 C.2       1 <0>         0.0213
     18 C16         2.9875  -10.8515    0.9028 C.2       1 <0>        -0.0887
     19 C17         3.3908  -12.2177    0.7566 C.1       1 <0>         0.2515
     20 N1          3.7107  -13.3016    0.6406 N.1       1 <0>        -0.3859
     21 C18         3.5153  -10.0435    2.0134 C.2       1 <0>         0.5660
     22 O2          3.0744  -10.1926    3.1373 O.2       1 <0>        -0.5171
     23 N2          4.4874   -9.1382    1.7855 N.am      1 <0>        -0.6036
     24 C19         4.9443   -8.2653    2.8697 C.3       1 <0>         0.0827
     25 C20         5.0872   -9.0271    0.4535 C.3       1 <0>         0.0720
     26 Cl1         0.4398   -6.7284    3.3745 Cl        1 <0>        -0.0316
     27 H1         -1.8243    1.0950    1.9993 H         1 <0>         0.0731
     28 H2         -3.3091    0.8936    1.0384 H         1 <0>         0.0680
     29 H3         -3.3327    0.5772    2.7899 H         1 <0>         0.0680
     30 H4         -2.3004   -0.6961   -0.4978 H         1 <0>         0.1247
     31 H5         -1.7114   -3.0503   -0.9150 H         1 <0>         0.1237
     32 H6         -1.7856   -3.8125    3.2806 H         1 <0>         0.1234
     33 H7         -2.3665   -1.4563    3.6983 H         1 <0>         0.1248
     34 H8         -1.7799   -5.6424    1.6854 H         1 <0>         0.0678
     35 H9         -1.7494   -5.3245   -0.0657 H         1 <0>         0.0688
     36 H10         1.4658   -9.1845    2.3798 H         1 <0>         0.1657
     37 H11         1.5568   -8.4094   -1.8489 H         1 <0>         0.1539
     38 H12         1.8069  -10.8471   -0.8745 H         1 <0>         0.1608
     39 H13         5.7670   -8.7448    3.4000 H         1 <0>         0.0621
     40 H14         5.2838   -7.3167    2.4538 H         1 <0>         0.0766
     41 H15         4.1219   -8.0849    3.5619 H         1 <0>         0.0809
     42 H16         4.5762   -8.2473   -0.1112 H         1 <0>         0.0644
     43 H17         6.1428   -8.7731    0.5504 H         1 <0>         0.0799
     44 H18         4.9890   -9.9782   -0.0697 H         1 <0>         0.0748
@<TRIPOS>BOND
     1    1    2 1
     2    1   27 1
     3    1   28 1
     4    1   29 1
     5    2    7 ar
     6    2    3 ar
     7    3    4 ar
     8    3   30 1
     9    4    5 ar
    10    4   31 1
    11    5    6 ar
    12    5    8 1
    13    6    7 ar
    14    6   32 1
    15    7   33 1
    16    8    9 1
    17    8   34 1
    18    8   35 1
    19    9   10 1
    20   10   15 ar
    21   10   11 ar
    22   11   12 ar
    23   11   26 1
    24   12   13 ar
    25   12   36 1
    26   13   14 ar
    27   13   17 1
    28   14   15 ar
    29   14   37 1
    30   15   16 1
    31   17   18 2
    32   17   38 1
    33   18   19 1
    34   18   21 1
    35   19   20 3
    36   21   22 2
    37   21   23 am
    38   23   24 1
    39   23   25 1
    40   24   39 1
    41   24   40 1
    42   24   41 1
    43   25   42 1
    44   25   43 1
    45   25   44 1
@<TRIPOS>MOLECULE
ZINC04175088
   36    39     0     0     0
SMALL
USER_CHARGES
2-(4-benzo[1,3]dioxol-5-ylthiazol-2-yl)-3-(2,3-dichlorophenyl)-prop-2-enenitrile
@<TRIPOS>ATOM
      1 C1         -3.3420    1.2914    3.7850 C.ar      1 <0>        -0.1010
      2 C2         -3.6472    1.9688    2.6239 C.ar      1 <0>        -0.0790
      3 C3         -2.9367    3.1269    2.2856 C.ar      1 <0>        -0.0709
      4 C4         -1.9123    3.5815    3.1267 C.ar      1 <0>        -0.0035
      5 C5         -1.6164    2.8877    4.2835 C.ar      1 <0>        -0.0348
      6 C6         -2.3289    1.7460    4.6114 C.ar      1 <0>        -0.0745
      7 Cl1        -0.3482    3.4472    5.3286 Cl        1 <0>        -0.0371
      8 Cl2        -1.0188    5.0123    2.7164 Cl        1 <0>        -0.0308
      9 C7         -3.2594    3.8574    1.0541 C.2       1 <0>         0.0208
     10 C8         -3.6860    3.1791   -0.0491 C.2       1 <0>         0.0314
     11 C9         -4.1431    3.8987   -1.1997 C.1       1 <0>         0.2532
     12 N1         -4.5056    4.4695   -2.1125 N.1       1 <0>        -0.3815
     13 C10        -3.6766    1.7045   -0.0573 C.2       1 <0>         0.1389
     14 N2         -4.6836    0.8604   -0.2304 N.2       1 <0>        -0.4725
     15 C11        -4.4943   -0.4450   -0.2083 C.2       1 <0>         0.0987
     16 C12        -3.2319   -0.9389   -0.0022 C.2       1 <0>        -0.1809
     17 S1         -2.3029    0.5808    0.1559 S.3       1 <0>         0.0688
     18 C13        -5.6371   -1.3704   -0.4051 C.ar      1 <0>        -0.0187
     19 C14        -5.4515   -2.7458   -0.2780 C.ar      1 <0>        -0.0917
     20 C15        -6.5150   -3.6059   -0.4617 C.ar      1 <0>        -0.0992
     21 C16        -7.7706   -3.1059   -0.7720 C.ar      1 <0>         0.0411
     22 C17        -7.9618   -1.7313   -0.8998 C.ar      1 <0>         0.0316
     23 C18        -6.8992   -0.8656   -0.7117 C.ar      1 <0>        -0.0676
     24 O1         -9.2722   -1.4999   -1.2057 O.3       1 <0>        -0.3064
     25 C19        -9.9673   -2.7128   -0.8612 C.3       1 <0>         0.2125
     26 O2         -8.9618   -3.7342   -0.9980 O.3       1 <0>        -0.3071
     27 H1         -3.8924    0.4003    4.0486 H         1 <0>         0.1451
     28 H2         -4.4352    1.6094    1.9787 H         1 <0>         0.1447
     29 H3         -2.0928    1.2076    5.5174 H         1 <0>         0.1490
     30 H4         -3.1590    4.9323    1.0218 H         1 <0>         0.1636
     31 H5         -2.8918   -1.9628    0.0464 H         1 <0>         0.2073
     32 H6         -4.4750   -3.1387   -0.0360 H         1 <0>         0.1417
     33 H7         -6.3690   -4.6714   -0.3631 H         1 <0>         0.1417
     34 H8         -7.0469    0.2001   -0.8060 H         1 <0>         0.1457
     35 H9        -10.3303   -2.6678    0.1655 H         1 <0>         0.0870
     36 H10       -10.7911   -2.8915   -1.5523 H         1 <0>         0.1342
@<TRIPOS>BOND
     1    1    6 ar
     2    1    2 ar
     3    1   27 1
     4    2    3 ar
     5    2   28 1
     6    3    4 ar
     7    3    9 1
     8    4    5 ar
     9    4    8 1
    10    5    6 ar
    11    5    7 1
    12    6   29 1
    13    9   10 2
    14    9   30 1
    15   10   11 1
    16   10   13 1
    17   11   12 3
    18   13   17 1
    19   13   14 2
    20   14   15 1
    21   15   16 2
    22   15   18 1
    23   16   17 1
    24   16   31 1
    25   18   23 ar
    26   18   19 ar
    27   19   20 ar
    28   19   32 1
    29   20   21 ar
    30   20   33 1
    31   21   26 1
    32   21   22 ar
    33   22   23 ar
    34   22   24 1
    35   23   34 1
    36   24   25 1
    37   25   26 1
    38   25   35 1
    39   25   36 1
@<TRIPOS>MOLECULE
ZINC05253221
   51    55     0     0     0
SMALL
USER_CHARGES
(3-methoxyphenyl)-(4-methylsulfanylphenyl)-BLAH
@<TRIPOS>ATOM
      1 C1         -3.7771    3.3132    0.0298 C.3       1 <0>         0.0264
      2 O1         -2.5644    4.0689    0.0203 O.3       1 <0>        -0.3162
      3 C2         -1.4003    3.3678    0.0437 C.ar      1 <0>         0.1278
      4 C3         -1.4268    1.9795    0.0699 C.ar      1 <0>        -0.1996
      5 C4         -0.2462    1.2607    0.0992 C.ar      1 <0>        -0.0781
      6 C5          0.9672    1.9176    0.0919 C.ar      1 <0>        -0.1342
      7 C6          1.0043    3.3136    0.0603 C.ar      1 <0>         0.0215
      8 C7         -0.1891    4.0379    0.0362 C.ar      1 <0>        -0.1225
      9 C8          2.2992    4.0198    0.0519 C.2       1 <0>         0.0861
     10 N1          2.4488    5.3039    0.0240 N.2       1 <0>        -0.1930
     11 N2          3.7720    5.7042   -0.0084 N.pl3     1 <0>        -0.5534
     12 C9          4.6365    4.5265    0.2271 C.3       1 <0>         0.1578
     13 H1          5.0830    4.5485    1.2213 H         1 <0>         0.0952
     14 C10         3.6593    3.3528    0.0814 C.3       1 <0>        -0.1129
     15 C11         5.6768    4.5365   -0.8625 C.ar      1 <0>        -0.1659
     16 C12         6.4184    3.3939   -1.0982 C.ar      1 <0>        -0.0777
     17 C13         7.3889    3.3820   -2.0814 C.ar      1 <0>        -0.1492
     18 C14         7.6181    4.5210   -2.8314 C.ar      1 <0>        -0.0814
     19 C15         6.8774    5.6603   -2.6036 C.ar      1 <0>        -0.1498
     20 C16         5.8898    5.6796   -1.6183 C.ar      1 <0>         0.1518
     21 O2          5.1828    6.8283   -1.4676 O.3       1 <0>        -0.3250
     22 C17         4.3557    7.0170   -0.3138 C.3       1 <0>         0.4217
     23 H2          3.5663    7.7362   -0.5322 H         1 <0>         0.1469
     24 C18         5.1884    7.4963    0.8472 C.ar      1 <0>        -0.1421
     25 C19         4.7743    7.2463    2.1429 C.ar      1 <0>        -0.0648
     26 C20         5.5372    7.6797    3.2091 C.ar      1 <0>        -0.1380
     27 C21         6.7170    8.3772    2.9790 C.ar      1 <0>        -0.0699
     28 C22         7.1273    8.6312    1.6758 C.ar      1 <0>        -0.1015
     29 C23         6.3620    8.1901    0.6145 C.ar      1 <0>        -0.0665
     30 S1          7.6900    8.9386    4.3365 S.3       1 <0>        -0.1125
     31 C24         6.7689    8.3819    5.7967 C.3       1 <0>        -0.1454
     32 H3         -3.8081    2.6648   -0.8458 H         1 <0>         0.0567
     33 H4         -3.8194    2.7054    0.9337 H         1 <0>         0.0565
     34 H5         -4.6290    3.9929    0.0089 H         1 <0>         0.1016
     35 H6         -2.3733    1.4595    0.0713 H         1 <0>         0.1304
     36 H7         -0.2737    0.1813    0.1233 H         1 <0>         0.1307
     37 H8          1.8876    1.3529    0.1103 H         1 <0>         0.1289
     38 H9         -0.1673    5.1174    0.0120 H         1 <0>         0.1385
     39 H10         3.7373    2.6789    0.9346 H         1 <0>         0.1015
     40 H11         3.8435    2.8168   -0.8497 H         1 <0>         0.0996
     41 H12         6.2386    2.5060   -0.5102 H         1 <0>         0.1267
     42 H13         7.9654    2.4872   -2.2638 H         1 <0>         0.1274
     43 H14         8.3796    4.5176   -3.5973 H         1 <0>         0.1303
     44 H15         7.0632    6.5463   -3.1926 H         1 <0>         0.1314
     45 H16         3.8550    6.7081    2.3209 H         1 <0>         0.1280
     46 H17         5.2153    7.4806    4.2206 H         1 <0>         0.1261
     47 H18         8.0438    9.1726    1.4933 H         1 <0>         0.1328
     48 H19         6.6800    8.3874   -0.3986 H         1 <0>         0.1359
     49 H20         5.7748    8.8289    5.7913 H         1 <0>         0.0852
     50 H21         6.6790    7.2957    5.7772 H         1 <0>         0.0845
     51 H22         7.2994    8.6864    6.6988 H         1 <0>         0.1116
@<TRIPOS>BOND
     1    1    2 1
     2    1   32 1
     3    1   33 1
     4    1   34 1
     5    2    3 1
     6    3    8 ar
     7    3    4 ar
     8    4    5 ar
     9    4   35 1
    10    5    6 ar
    11    5   36 1
    12    6    7 ar
    13    6   37 1
    14    7    8 ar
    15    7    9 1
    16    8   38 1
    17    9   14 1
    18    9   10 2
    19   10   11 1
    20   11   22 1
    21   11   12 1
    22   12   13 1
    23   12   14 1
    24   12   15 1
    25   14   39 1
    26   14   40 1
    27   15   20 ar
    28   15   16 ar
    29   16   17 ar
    30   16   41 1
    31   17   18 ar
    32   17   42 1
    33   18   19 ar
    34   18   43 1
    35   19   20 ar
    36   19   44 1
    37   20   21 1
    38   21   22 1
    39   22   23 1
    40   22   24 1
    41   24   29 ar
    42   24   25 ar
    43   25   26 ar
    44   25   45 1
    45   26   27 ar
    46   26   46 1
    47   27   28 ar
    48   27   30 1
    49   28   29 ar
    50   28   47 1
    51   29   48 1
    52   30   31 1
    53   31   49 1
    54   31   50 1
    55   31   51 1
@<TRIPOS>MOLECULE
ZINC01815206
   49    53     0     0     0
SMALL
USER_CHARGES
ethylsulfanyl-(4-methoxyphenyl)-BLAHone
@<TRIPOS>ATOM
      1 C1         -8.3236   -3.7523   -2.5048 C.3       1 <0>        -0.1429
      2 C2         -7.0282   -3.2886   -1.8354 C.3       1 <0>        -0.1172
      3 S1         -6.2839   -4.6730   -0.9379 S.3       1 <0>         0.0296
      4 C3         -4.8522   -3.8800   -0.2852 C.2       1 <0>         0.3700
      5 N1         -4.6536   -2.5970   -0.5590 N.2       1 <0>        -0.4755
      6 C4         -3.5690   -2.0276   -0.0548 C.2       1 <0>         0.0954
      7 C5         -2.6190   -2.7018    0.7556 C.2       1 <0>        -0.2498
      8 C6         -1.5281   -1.9465    1.2105 C.2       1 <0>        -0.0337
      9 C7         -1.4708   -0.6320    0.8155 C.2       1 <0>        -0.1599
     10 S2         -2.9223   -0.3859   -0.1634 S.3       1 <0>         0.2018
     11 C8         -0.3922    0.2841    1.1798 C.ar      1 <0>        -0.0017
     12 C9         -0.4835    1.6622    1.0363 C.ar      1 <0>        -0.1034
     13 C10         0.5682    2.4632    1.4365 C.ar      1 <0>        -0.1172
     14 C11         1.7062    1.8916    1.9785 C.ar      1 <0>        -0.1118
     15 C12         1.8085    0.5181    2.1111 C.ar      1 <0>        -0.1130
     16 C13         0.7746   -0.2968    1.7028 C.ar      1 <0>        -0.0643
     17 C14         0.9004   -1.7927    1.7711 C.3       1 <0>        -0.0804
     18 C15        -0.4171   -2.4811    2.1079 C.3       1 <0>        -0.0647
     19 C16        -2.8692   -4.0892    1.0285 C.2       1 <0>         0.5702
     20 O1         -2.1143   -4.7592    1.7119 O.2       1 <0>        -0.4938
     21 N2         -3.9924   -4.6087    0.4816 N.am      1 <0>        -0.4654
     22 C17        -4.2856   -5.9603    0.7142 C.ar      1 <0>         0.0413
     23 C18        -3.8138   -6.9331   -0.1568 C.ar      1 <0>        -0.0423
     24 C19        -4.0991   -8.2640    0.0751 C.ar      1 <0>        -0.1990
     25 C20        -4.8656   -8.6284    1.1725 C.ar      1 <0>         0.1537
     26 C21        -5.3413   -7.6563    2.0406 C.ar      1 <0>        -0.1410
     27 C22        -5.0526   -6.3256    1.8123 C.ar      1 <0>        -0.0442
     28 O2         -5.1509   -9.9385    1.3972 O.3       1 <0>        -0.3108
     29 C23        -4.6288  -10.8857    0.4633 C.3       1 <0>         0.0232
     30 H1         -8.1031   -4.5607   -3.2019 H         1 <0>         0.0672
     31 H2         -9.0185   -4.1079   -1.7441 H         1 <0>         0.0676
     32 H3         -8.7718   -2.9186   -3.0452 H         1 <0>         0.0833
     33 H4         -7.2487   -2.4802   -1.1383 H         1 <0>         0.1029
     34 H5         -6.3333   -2.9330   -2.5961 H         1 <0>         0.1026
     35 H6         -1.3710    2.1055    0.6096 H         1 <0>         0.1239
     36 H7          0.5025    3.5355    1.3265 H         1 <0>         0.1279
     37 H8          2.5212    2.5229    2.3006 H         1 <0>         0.1256
     38 H9          2.7013    0.0832    2.5356 H         1 <0>         0.1272
     39 H10         1.2529   -2.1603    0.8074 H         1 <0>         0.0792
     40 H11         1.6346   -2.0493    2.5347 H         1 <0>         0.0838
     41 H12        -0.3136   -3.5553    1.9547 H         1 <0>         0.0995
     42 H13        -0.6699   -2.2885    3.1505 H         1 <0>         0.0813
     43 H14        -3.2206   -6.6492   -1.0135 H         1 <0>         0.1309
     44 H15        -3.7290   -9.0211   -0.6004 H         1 <0>         0.1404
     45 H16        -5.9379   -7.9406    2.8948 H         1 <0>         0.1441
     46 H17        -5.4236   -5.5688    2.4877 H         1 <0>         0.1355
     47 H18        -5.0178  -10.6676   -0.5313 H         1 <0>         0.0597
     48 H19        -3.5408  -10.8210    0.4500 H         1 <0>         0.0592
     49 H20        -4.9294  -11.8909    0.7586 H         1 <0>         0.1048
@<TRIPOS>BOND
     1    1    2 1
     2    1   30 1
     3    1   31 1
     4    1   32 1
     5    2    3 1
     6    2   33 1
     7    2   34 1
     8    3    4 1
     9    4   21 1
    10    4    5 2
    11    5    6 1
    12    6   10 1
    13    6    7 2
    14    7    8 1
    15    7   19 1
    16    8   18 1
    17    8    9 2
    18    9   10 1
    19    9   11 1
    20   11   16 ar
    21   11   12 ar
    22   12   13 ar
    23   12   35 1
    24   13   14 ar
    25   13   36 1
    26   14   15 ar
    27   14   37 1
    28   15   16 ar
    29   15   38 1
    30   16   17 1
    31   17   18 1
    32   17   39 1
    33   17   40 1
    34   18   41 1
    35   18   42 1
    36   19   20 2
    37   19   21 am
    38   21   22 1
    39   22   27 ar
    40   22   23 ar
    41   23   24 ar
    42   23   43 1
    43   24   25 ar
    44   24   44 1
    45   25   26 ar
    46   25   28 1
    47   26   27 ar
    48   26   45 1
    49   27   46 1
    50   28   29 1
    51   29   47 1
    52   29   48 1
    53   29   49 1
@<TRIPOS>MOLECULE
ZINC13561659
   47    49     0     0     0
SMALL
USER_CHARGES
2-[4-(4-bromophenyl)pyrimidin-2-yl]sulfanyl-1-[(3S,5R)-3,5-dimethyl-1-piperidyl]ethanone
@<TRIPOS>ATOM
      1 C1         -0.7575    2.0352   -1.2295 C.3       1 <0>        -0.1480
      2 C2         -0.0187    1.5277    0.0104 C.3       1 <0>        -0.1069
      3 H1         -0.5346    1.8854    0.9137 H         1 <0>         0.0753
      4 C3          1.4185    2.0534   -0.0005 C.3       1 <0>        -0.1122
      5 C4          2.1487    1.5734    1.2559 C.3       1 <0>        -0.1079
      6 H2          1.6167    1.9308    2.1499 H         1 <0>         0.0762
      7 C5          2.1940    0.0421    1.2616 C.3       1 <0>         0.1051
      8 N1          0.8243   -0.4720    1.1261 N.am      1 <0>        -0.6044
      9 C6          0.0021   -0.0041    0.0020 C.3       1 <0>         0.1138
     10 C7          0.3314   -1.3558    2.0163 C.2       1 <0>         0.5338
     11 O1         -0.8009   -1.7725    1.8937 O.2       1 <0>        -0.5235
     12 C8          1.1873   -1.8263    3.1640 C.3       1 <0>        -0.1549
     13 S1          0.2497   -2.9992    4.1746 S.3       1 <0>         0.0949
     14 C9          1.4543   -3.3745    5.4045 C.ar      1 <0>         0.2879
     15 N2          2.6447   -2.7937    5.3415 N.ar      1 <0>        -0.5340
     16 C10         3.5758   -3.0491    6.2465 C.ar      1 <0>         0.1706
     17 C11         3.2984   -3.9362    7.2718 C.ar      1 <0>        -0.2293
     18 C12         2.0355   -4.5330    7.3124 C.ar      1 <0>         0.2341
     19 N3          1.1459   -4.2252    6.3712 N.ar      1 <0>        -0.4958
     20 C13         1.6896   -5.4899    8.3911 C.ar      1 <0>        -0.0487
     21 C14         2.6274   -5.8064    9.3726 C.ar      1 <0>        -0.0835
     22 C15         2.2990   -6.6941   10.3766 C.ar      1 <0>        -0.0955
     23 C16         1.0439   -7.2774   10.4047 C.ar      1 <0>        -0.0726
     24 C17         0.1107   -6.9706    9.4294 C.ar      1 <0>        -0.0963
     25 C18         0.4273   -6.0805    8.4239 C.ar      1 <0>        -0.0634
     26 Br1         0.6030   -8.4982   11.7799 Br        1 <0>        -0.0412
     27 C19         3.5752    2.1265    1.2603 C.3       1 <0>        -0.1485
     28 H3         -0.7722    3.1351   -1.2230 H         1 <0>         0.0607
     29 H4         -1.7896    1.6547   -1.2227 H         1 <0>         0.0596
     30 H5         -0.2419    1.6807   -2.1342 H         1 <0>         0.0581
     31 H6          1.9398    1.6771   -0.8931 H         1 <0>         0.0669
     32 H7          1.4065    3.1532   -0.0193 H         1 <0>         0.0690
     33 H8          2.8093   -0.3096    0.4204 H         1 <0>         0.0757
     34 H9          2.6320   -0.3083    2.2079 H         1 <0>         0.0891
     35 H10        -1.0244   -0.3853    0.1067 H         1 <0>         0.0965
     36 H11         0.4303   -0.3598   -0.9467 H         1 <0>         0.0715
     37 H12         2.0886   -2.3195    2.7711 H         1 <0>         0.1264
     38 H13         1.4805   -0.9637    3.7804 H         1 <0>         0.1263
     39 H14         4.5418   -2.5700    6.1858 H         1 <0>         0.1757
     40 H15         4.0408   -4.1622    8.0228 H         1 <0>         0.1527
     41 H16         3.6082   -5.3546    9.3494 H         1 <0>         0.1391
     42 H17         3.0236   -6.9371   11.1396 H         1 <0>         0.1407
     43 H18        -0.8669   -7.4290    9.4555 H         1 <0>         0.1406
     44 H19        -0.3014   -5.8421    7.6632 H         1 <0>         0.1473
     45 H20         4.0995    1.7812    2.1635 H         1 <0>         0.0589
     46 H21         3.5422    3.2260    1.2532 H         1 <0>         0.0614
     47 H22         4.1094    1.7700    0.3673 H         1 <0>         0.0587
@<TRIPOS>BOND
     1    1    2 1
     2    1   28 1
     3    1   29 1
     4    1   30 1
     5    2    3 1
     6    2    9 1
     7    2    4 1
     8    4    5 1
     9    4   31 1
    10    4   32 1
    11    5    6 1
    12    5    7 1
    13    5   27 1
    14    7    8 1
    15    7   33 1
    16    7   34 1
    17    8    9 1
    18    8   10 am
    19    9   35 1
    20    9   36 1
    21   10   11 2
    22   10   12 1
    23   12   13 1
    24   12   37 1
    25   12   38 1
    26   13   14 1
    27   14   19 ar
    28   14   15 ar
    29   15   16 ar
    30   16   17 ar
    31   16   39 1
    32   17   18 ar
    33   17   40 1
    34   18   19 ar
    35   18   20 1
    36   20   25 ar
    37   20   21 ar
    38   21   22 ar
    39   21   41 1
    40   22   23 ar
    41   22   42 1
    42   23   24 ar
    43   23   26 1
    44   24   25 ar
    45   24   43 1
    46   25   44 1
    47   27   45 1
    48   27   46 1
    49   27   47 1
@<TRIPOS>MOLECULE
ZINC45620650
   41    43     0     0     0
SMALL
USER_CHARGES

@<TRIPOS>ATOM
      1 C1         -0.0411    1.4202    0.0003 C.3       1 <0>         0.0255
      2 O1         -0.0167   -0.0086   -0.0061 O.3       1 <0>        -0.3164
      3 C2          0.5921   -0.6110   -1.0626 C.ar      1 <0>         0.1108
      4 C3          1.1584    0.1593   -2.0678 C.ar      1 <0>        -0.1716
      5 C4          1.7743   -0.4548   -3.1395 C.ar      1 <0>        -0.1362
      6 C5          1.8282   -1.8422   -3.2117 C.ar      1 <0>         0.1377
      7 C6          1.2660   -2.6132   -2.2069 C.ar      1 <0>        -0.0646
      8 C7          0.6513   -1.9934   -1.1314 C.ar      1 <0>        -0.1224
      9 C8          1.3158   -4.1178   -2.2484 C.3       1 <0>        -0.0800
     10 C9          1.5579   -4.6067   -3.6761 C.3       1 <0>        -0.1307
     11 C10         2.7780   -3.8753   -4.2507 C.3       1 <0>         0.1003
     12 N1          2.4548   -2.4434   -4.3126 N.pl3     1 <0>        -0.9320
     13 S1          2.8234   -1.5546   -5.6604 S.o2      1 <0>         2.6887
     14 O2          3.0137   -2.4828   -6.7194 O.2       1 <0>        -0.9331
     15 O3          1.8671   -0.5058   -5.7292 O.2       1 <0>        -0.9311
     16 C11         4.3859   -0.7933   -5.3712 C.ar      1 <0>        -0.6836
     17 C12         4.4476    0.4534   -4.7765 C.ar      1 <0>         0.0216
     18 C13         5.6728    1.0512   -4.5498 C.ar      1 <0>        -0.1258
     19 C14         6.8379    0.4017   -4.9177 C.ar      1 <0>         0.0597
     20 C15         6.7755   -0.8458   -5.5122 C.ar      1 <0>        -0.1980
     21 C16         5.5496   -1.4451   -5.7337 C.ar      1 <0>         0.0419
     22 C17         8.0439   -1.5539   -5.9132 C.3       1 <0>         0.5116
     23 F1          7.7266   -2.7887   -6.4891 F         1 <0>        -0.1690
     24 F2          8.7412   -0.7722   -6.8405 F         1 <0>        -0.1652
     25 F3          8.8415   -1.7581   -4.7821 F         1 <0>        -0.1658
     26 Cl1         8.3773    1.1522   -4.6338 Cl        1 <0>        -0.0200
     27 H1          0.9801    1.8011   -0.0054 H         1 <0>         0.0558
     28 H2         -0.5675    1.7785   -0.8843 H         1 <0>         0.0571
     29 H3         -0.5547    1.7707    0.8956 H         1 <0>         0.1015
     30 H4          1.1171    1.2371   -2.0121 H         1 <0>         0.1367
     31 H5          2.2149    0.1434   -3.9234 H         1 <0>         0.1391
     32 H6          0.2126   -2.5902   -0.3455 H         1 <0>         0.1377
     33 H7          2.1235   -4.4688   -1.6062 H         1 <0>         0.0843
     34 H8          0.3691   -4.5191   -1.8865 H         1 <0>         0.0868
     35 H9          1.7464   -5.6802   -3.6674 H         1 <0>         0.0916
     36 H10         0.6821   -4.3929   -4.2887 H         1 <0>         0.0771
     37 H11         3.6408   -4.0314   -3.6032 H         1 <0>         0.0826
     38 H12         2.9945   -4.2485   -5.2517 H         1 <0>         0.1083
     39 H13         3.5382    0.9603   -4.4894 H         1 <0>         0.1612
     40 H14         5.7209    2.0253   -4.0860 H         1 <0>         0.1615
     41 H15         5.5009   -2.4208   -6.1941 H         1 <0>         0.1664
@<TRIPOS>BOND
     1    1    2 1
     2    1   27 1
     3    1   28 1
     4    1   29 1
     5    2    3 1
     6    3    8 ar
     7    3    4 ar
     8    4    5 ar
     9    4   30 1
    10    5    6 ar
    11    5   31 1
    12    6   12 1
    13    6    7 ar
    14    7    8 ar
    15    7    9 1
    16    8   32 1
    17    9   10 1
    18    9   33 1
    19    9   34 1
    20   10   11 1
    21   10   35 1
    22   10   36 1
    23   11   12 1
    24   11   37 1
    25   11   38 1
    26   12   13 1
    27   13   14 2
    28   13   15 2
    29   13   16 1
    30   16   21 ar
    31   16   17 ar
    32   17   18 ar
    33   17   39 1
    34   18   19 ar
    35   18   40 1
    36   19   20 ar
    37   19   26 1
    38   20   21 ar
    39   20   22 1
    40   21   41 1
    41   22   23 1
    42   22   24 1
    43   22   25 1
@<TRIPOS>MOLECULE
ZINC02206924
   47    50     0     0     0
SMALL
USER_CHARGES
3-[4-(4-chlorophenyl)thiazol-2-yl]-7-diethylamino-chromen-2-one
@<TRIPOS>ATOM
      1 C1          3.5962   -2.6212   -1.4868 C.3       1 <0>        -0.1750
      2 C2          3.6074   -2.1185   -0.0418 C.3       1 <0>         0.1100
      3 N1          3.6023   -0.6535   -0.0344 N.pl3     1 <0>        -0.6064
      4 C3          4.8685    0.0834   -0.0420 C.3       1 <0>         0.1073
      5 C4          5.3222    0.3327    1.3978 C.3       1 <0>        -0.1746
      6 C5          2.3952    0.0379   -0.0201 C.ar      1 <0>         0.2896
      7 C6          1.1912   -0.6689   -0.0129 C.ar      1 <0>        -0.2154
      8 C7          0.0021   -0.0041    0.0020 C.ar      1 <0>         0.0066
      9 C8         -0.0170    1.4000    0.0097 C.ar      1 <0>        -0.2246
     10 C9         -1.2519    2.0941    0.0312 C.2       1 <0>         0.0566
     11 C10        -1.2381    3.4766    0.0321 C.2       1 <0>        -0.1718
     12 C11         0.0529    4.1716    0.0244 C.2       1 <0>         0.5243
     13 O1          0.0875    5.3882    0.0310 O.2       1 <0>        -0.4221
     14 O2          1.1977    3.4687    0.0097 O.3       1 <0>        -0.2635
     15 C12         1.1939    2.1177    0.0020 C.ar      1 <0>         0.2159
     16 C13         2.3957    1.4249   -0.0127 C.ar      1 <0>        -0.2354
     17 C14        -2.5008    4.2395    0.0477 C.2       1 <0>         0.1818
     18 N2         -2.6879    5.5510    0.0568 N.2       1 <0>        -0.4703
     19 C15        -3.9019    6.0697    0.0707 C.2       1 <0>         0.1025
     20 C16        -4.9897    5.2363    0.0758 C.2       1 <0>        -0.1933
     21 S1         -4.1847    3.6398    0.0516 S.3       1 <0>         0.0183
     22 C17        -4.0867    7.5415    0.0802 C.ar      1 <0>        -0.0234
     23 C18        -5.3701    8.0850    0.0886 C.ar      1 <0>        -0.0927
     24 C19        -5.5367    9.4548    0.1033 C.ar      1 <0>        -0.1119
     25 C20        -4.4317   10.2889    0.0981 C.ar      1 <0>        -0.0287
     26 C21        -3.1549    9.7540    0.0840 C.ar      1 <0>        -0.1121
     27 C22        -2.9776    8.3856    0.0751 C.ar      1 <0>        -0.0695
     28 Cl1        -4.6481   12.0113    0.1087 Cl        1 <0>        -0.0685
     29 H1          2.7004   -2.2584   -1.9908 H         1 <0>         0.0611
     30 H2          4.4803   -2.2522   -2.0067 H         1 <0>         0.0591
     31 H3          3.6000   -3.7112   -1.4923 H         1 <0>         0.0697
     32 H4          4.5032   -2.4813    0.4622 H         1 <0>         0.0820
     33 H5          2.7233   -2.4875    0.4781 H         1 <0>         0.0825
     34 H6          5.6255   -0.5005   -0.5656 H         1 <0>         0.0822
     35 H7          4.7303    1.0379   -0.5498 H         1 <0>         0.0830
     36 H8          4.5651    0.9165    1.9213 H         1 <0>         0.0614
     37 H9          5.4604   -0.6219    1.9056 H         1 <0>         0.0588
     38 H10         6.2642    0.8809    1.3921 H         1 <0>         0.0702
     39 H11         1.2026   -1.7489   -0.0188 H         1 <0>         0.1386
     40 H12        -0.9257   -0.5568    0.0075 H         1 <0>         0.1427
     41 H13        -2.1867    1.5533    0.0410 H         1 <0>         0.1500
     42 H14         3.3309    1.9650   -0.0180 H         1 <0>         0.1457
     43 H15        -6.0424    5.4773    0.0866 H         1 <0>         0.2032
     44 H16        -6.2327    7.4352    0.0878 H         1 <0>         0.1340
     45 H17        -6.5307    9.8769    0.1146 H         1 <0>         0.1375
     46 H18        -2.2961   10.4089    0.0797 H         1 <0>         0.1371
     47 H19        -1.9811    7.9693    0.0638 H         1 <0>         0.1472
@<TRIPOS>BOND
     1    1    2 1
     2    1   29 1
     3    1   30 1
     4    1   31 1
     5    2    3 1
     6    2   32 1
     7    2   33 1
     8    3    4 1
     9    3    6 1
    10    4    5 1
    11    4   34 1
    12    4   35 1
    13    5   36 1
    14    5   37 1
    15    5   38 1
    16    6   16 ar
    17    6    7 ar
    18    7    8 ar
    19    7   39 1
    20    8    9 ar
    21    8   40 1
    22    9   15 ar
    23    9   10 1
    24   10   11 2
    25   10   41 1
    26   11   12 1
    27   11   17 1
    28   12   13 2
    29   12   14 1
    30   14   15 1
    31   15   16 ar
    32   16   42 1
    33   17   21 1
    34   17   18 2
    35   18   19 1
    36   19   20 2
    37   19   22 1
    38   20   21 1
    39   20   43 1
    40   22   27 ar
    41   22   23 ar
    42   23   24 ar
    43   23   44 1
    44   24   25 ar
    45   24   45 1
    46   25   26 ar
    47   25   28 1
    48   26   27 ar
    49   26   46 1
    50   27   47 1
@<TRIPOS>MOLECULE
ZINC00882446
   48    52     0     0     0
SMALL
USER_CHARGES
1-(3,4-dihydro-2H-quinolin-1-yl)-2-[5-(4-fluorophenyl)thieno[3,2-e]pyrimidin-4-yl]sulfanyl-ethanone
@<TRIPOS>ATOM
      1 C1         -8.9343    1.7643   -1.3004 C.ar      1 <0>        -0.1365
      2 C2         -7.9302    2.6402   -0.9297 C.ar      1 <0>        -0.1032
      3 C3         -6.6380    2.1801   -0.7750 C.ar      1 <0>        -0.1556
      4 C4         -6.3465    0.8381   -0.9919 C.ar      1 <0>         0.1493
      5 C5         -7.3520   -0.0408   -1.3658 C.ar      1 <0>        -0.1143
      6 C6         -8.6452    0.4291   -1.5252 C.ar      1 <0>        -0.1017
      7 C7         -7.0743   -1.5026   -1.5979 C.3       1 <0>        -0.0795
      8 C8         -5.5877   -1.7281   -1.8728 C.3       1 <0>        -0.1356
      9 C9         -4.7702   -1.0531   -0.7637 C.3       1 <0>         0.0961
     10 N1         -5.0272    0.3919   -0.8333 N.am      1 <0>        -0.5457
     11 C10        -4.0121    1.2737   -0.7406 C.2       1 <0>         0.5338
     12 O1         -4.2419    2.4645   -0.7346 O.2       1 <0>        -0.4998
     13 C11        -2.5915    0.7799   -0.6444 C.3       1 <0>        -0.1808
     14 S1         -1.4806    2.1852   -0.3852 S.3       1 <0>         0.0913
     15 C12         0.0656    1.3434   -0.3117 C.ar      1 <0>         0.1910
     16 C13         1.2717    2.0702   -0.1183 C.ar      1 <0>        -0.1709
     17 C14         1.4772    3.5049    0.0495 C.2       1 <0>        -0.0518
     18 C15         2.7381    3.9665    0.2214 C.2       1 <0>        -0.1384
     19 S2          3.7331    2.4884    0.1678 S.3       1 <0>         0.1322
     20 C16         2.4474    1.2933   -0.0820 C.ar      1 <0>         0.1309
     21 N2          2.4094   -0.0184   -0.2202 N.ar      1 <0>        -0.4856
     22 C17         1.2587   -0.6381   -0.3971 C.ar      1 <0>         0.3356
     23 N3          0.1184    0.0267   -0.4414 N.ar      1 <0>        -0.5376
     24 C18         0.3268    4.4396    0.0315 C.ar      1 <0>        -0.0599
     25 C19         0.2804    5.4734   -0.9028 C.ar      1 <0>        -0.0669
     26 C20        -0.7945    6.3383   -0.9185 C.ar      1 <0>        -0.1505
     27 C21        -1.8218    6.1868   -0.0013 C.ar      1 <0>         0.1137
     28 C22        -1.7777    5.1640    0.9321 C.ar      1 <0>        -0.1384
     29 C23        -0.7093    4.2912    0.9525 C.ar      1 <0>        -0.0585
     30 F1         -2.8700    7.0390   -0.0174 F         1 <0>        -0.1357
     31 H1         -9.9452    2.1241   -1.4225 H         1 <0>         0.1223
     32 H2         -8.1568    3.6827   -0.7618 H         1 <0>         0.1253
     33 H3         -5.8530    2.8630   -0.4858 H         1 <0>         0.1749
     34 H4         -9.4325   -0.2513   -1.8143 H         1 <0>         0.1252
     35 H5         -7.6547   -1.8475   -2.4536 H         1 <0>         0.0822
     36 H6         -7.3665   -2.0691   -0.7137 H         1 <0>         0.0793
     37 H7         -5.3245   -1.2929   -2.8369 H         1 <0>         0.0740
     38 H8         -5.3764   -2.7974   -1.8830 H         1 <0>         0.0894
     39 H9         -3.7087   -1.2472   -0.9172 H         1 <0>         0.0967
     40 H10        -5.0786   -1.4365    0.2089 H         1 <0>         0.0827
     41 H11        -2.3212    0.2686   -1.5683 H         1 <0>         0.1270
     42 H12        -2.5034    0.0878    0.1931 H         1 <0>         0.1258
     43 H13         3.0636    4.9871    0.3590 H         1 <0>         0.2041
     44 H14         1.2488   -1.7123   -0.5085 H         1 <0>         0.2123
     45 H15         1.0829    5.5950   -1.6153 H         1 <0>         0.1359
     46 H16        -0.8334    7.1370   -1.6445 H         1 <0>         0.1398
     47 H17        -2.5808    5.0498    1.6451 H         1 <0>         0.1402
     48 H18        -0.6755    3.4946    1.6809 H         1 <0>         0.1361
@<TRIPOS>BOND
     1    1    6 ar
     2    1    2 ar
     3    1   31 1
     4    2    3 ar
     5    2   32 1
     6    3    4 ar
     7    3   33 1
     8    4   10 1
     9    4    5 ar
    10    5    6 ar
    11    5    7 1
    12    6   34 1
    13    7    8 1
    14    7   35 1
    15    7   36 1
    16    8    9 1
    17    8   37 1
    18    8   38 1
    19    9   10 1
    20    9   39 1
    21    9   40 1
    22   10   11 am
    23   11   12 2
    24   11   13 1
    25   13   14 1
    26   13   41 1
    27   13   42 1
    28   14   15 1
    29   15   23 ar
    30   15   16 ar
    31   16   20 ar
    32   16   17 1
    33   17   18 2
    34   17   24 1
    35   18   19 1
    36   18   43 1
    37   19   20 1
    38   20   21 ar
    39   21   22 ar
    40   22   23 ar
    41   22   44 1
    42   24   29 ar
    43   24   25 ar
    44   25   26 ar
    45   25   45 1
    46   26   27 ar
    47   26   46 1
    48   27   28 ar
    49   27   30 1
    50   28   29 ar
    51   28   47 1
    52   29   48 1
@<TRIPOS>MOLECULE
ZINC35552869
   56    60     0     0     0
SMALL
USER_CHARGES

@<TRIPOS>ATOM
      1 C1          0.0000    1.5401   -0.0079 C.3       1 <0>        -0.1507
      2 C2          0.0141    0.0102   -0.0045 C.3       1 <0>        -0.1143
      3 C3          0.7224   -0.4961   -1.2627 C.3       1 <0>        -0.0494
      4 C4          0.7362   -2.0030   -1.2594 C.ar      1 <0>         0.3534
      5 N1          1.7455   -2.6386   -0.6912 N.ar      1 <0>        -0.5336
      6 C5          1.8166   -3.9594   -0.6557 C.ar      1 <0>         0.4804
      7 C6          0.7738   -4.7248   -1.2480 C.ar      1 <0>        -0.1899
      8 C7          0.6386   -6.1801   -1.3312 C.2       1 <0>        -0.0798
      9 C8         -0.4587   -6.6578   -1.9523 C.2       1 <0>        -0.1372
     10 S1         -1.3671   -5.2214   -2.4571 S.3       1 <0>         0.1064
     11 C9         -0.2677   -3.9773   -1.8330 C.ar      1 <0>         0.1242
     12 N2         -0.2621   -2.6584   -1.8191 N.ar      1 <0>        -0.4805
     13 C10        -0.8266   -8.0943   -2.1680 C.3       1 <0>        -0.0422
     14 C11         0.4156   -8.9575   -1.9049 C.3       1 <0>        -0.1146
     15 C12         1.0500   -8.5139   -0.5834 C.3       1 <0>        -0.1238
     16 C13         1.6808   -7.1309   -0.7487 C.3       1 <0>        -0.0588
     17 N3          2.8905   -4.5875   -0.0512 N.pl3     1 <0>        -0.6559
     18 C14         4.0477   -5.0213   -0.8464 C.3       1 <0>         0.1323
     19 C15         5.3149   -4.3982   -0.2479 C.3       1 <0>         0.1060
     20 N4          5.3194   -4.6433    1.2012 N.pl3     1 <0>        -0.6226
     21 C16         4.1621   -4.2094    1.9964 C.3       1 <0>         0.1057
     22 C17         2.8974   -4.8275    1.3987 C.3       1 <0>         0.1323
     23 C18         6.4050   -5.2782    1.8122 C.ar      1 <0>         0.2137
     24 C19         6.3444   -5.6187    3.1572 C.ar      1 <0>        -0.1735
     25 C20         7.4178   -6.2463    3.7587 C.ar      1 <0>        -0.1006
     26 C21         8.5536   -6.5359    3.0216 C.ar      1 <0>         0.0343
     27 C22         8.6162   -6.1973    1.6805 C.ar      1 <0>        -0.1006
     28 C23         7.5431   -5.5744    1.0736 C.ar      1 <0>        -0.1734
     29 F1          9.6026   -7.1494    3.6120 F         1 <0>        -0.1464
     30 H1          1.0242    1.9128   -0.0232 H         1 <0>         0.0573
     31 H2         -0.5296    1.8966   -0.8913 H         1 <0>         0.0579
     32 H3         -0.5046    1.9008    0.8885 H         1 <0>         0.0584
     33 H4          0.5437   -0.3464    0.8789 H         1 <0>         0.0649
     34 H5         -1.0101   -0.3626    0.0107 H         1 <0>         0.0656
     35 H6          0.1927   -0.1395   -2.1461 H         1 <0>         0.0938
     36 H7          1.7465   -0.1233   -1.2780 H         1 <0>         0.0941
     37 H8         -1.6226   -8.3768   -1.4790 H         1 <0>         0.0889
     38 H9         -1.1619   -8.2371   -3.1953 H         1 <0>         0.0868
     39 H10         0.1248  -10.0058   -1.8372 H         1 <0>         0.0771
     40 H11         1.1311   -8.8257   -2.7165 H         1 <0>         0.0693
     41 H12         0.2835   -8.4724    0.1905 H         1 <0>         0.0661
     42 H13         1.8186   -9.2300   -0.2923 H         1 <0>         0.0715
     43 H14         2.5335   -7.1965   -1.4246 H         1 <0>         0.0760
     44 H15         2.0099   -6.7614    0.2225 H         1 <0>         0.0845
     45 H16         4.1253   -6.1081   -0.8167 H         1 <0>         0.0691
     46 H17         3.9285   -4.6886   -1.8775 H         1 <0>         0.0777
     47 H18         6.1956   -4.8555   -0.6989 H         1 <0>         0.0915
     48 H19         5.3194   -3.3248   -0.4374 H         1 <0>         0.0693
     49 H20         4.2814   -4.5421    3.0275 H         1 <0>         0.0917
     50 H21         4.0845   -3.1226    1.9667 H         1 <0>         0.0704
     51 H22         2.0185   -4.3669    1.8499 H         1 <0>         0.0785
     52 H23         2.8912   -5.9002    1.5920 H         1 <0>         0.0680
     53 H24         5.4588   -5.3926    3.7326 H         1 <0>         0.1317
     54 H25         7.3713   -6.5109    4.8047 H         1 <0>         0.1336
     55 H26         9.5032   -6.4238    1.1076 H         1 <0>         0.1336
     56 H27         7.5906   -5.3145    0.0264 H         1 <0>         0.1315
@<TRIPOS>BOND
     1    1    2 1
     2    1   30 1
     3    1   31 1
     4    1   32 1
     5    2    3 1
     6    2   33 1
     7    2   34 1
     8    3    4 1
     9    3   35 1
    10    3   36 1
    11    4   12 ar
    12    4    5 ar
    13    5    6 ar
    14    6    7 ar
    15    6   17 1
    16    7   11 ar
    17    7    8 1
    18    8   16 1
    19    8    9 2
    20    9   10 1
    21    9   13 1
    22   10   11 1
    23   11   12 ar
    24   13   14 1
    25   13   37 1
    26   13   38 1
    27   14   15 1
    28   14   39 1
    29   14   40 1
    30   15   16 1
    31   15   41 1
    32   15   42 1
    33   16   43 1
    34   16   44 1
    35   17   22 1
    36   17   18 1
    37   18   19 1
    38   18   45 1
    39   18   46 1
    40   19   20 1
    41   19   47 1
    42   19   48 1
    43   20   21 1
    44   20   23 1
    45   21   22 1
    46   21   49 1
    47   21   50 1
    48   22   51 1
    49   22   52 1
    50   23   28 ar
    51   23   24 ar
    52   24   25 ar
    53   24   53 1
    54   25   26 ar
    55   25   54 1
    56   26   27 ar
    57   26   29 1
    58   27   28 ar
    59   27   55 1
    60   28   56 1
@<TRIPOS>MOLECULE
ZINC39865418
   38    40     0     0     0
SMALL
USER_CHARGES

@<TRIPOS>ATOM
      1 C1         -0.0832    0.7790   -0.7639 C.3       1 <0>        -0.0842
      2 C2         -0.9838    0.0048    0.1639 C.2       1 <0>         0.0687
      3 C3         -2.3247    0.2048    0.1311 C.2       1 <0>        -0.2004
      4 S1         -2.8631   -0.9381    1.3968 S.3       1 <0>        -0.0193
      5 C4         -1.2447   -1.5597    1.8338 C.2       1 <0>         0.2924
      6 N1         -0.4699   -0.8696    1.0025 N.2       1 <0>        -0.4958
      7 N2         -0.9002   -2.4901    2.7612 N.2       1 <0>        -0.4155
      8 C5         -0.8767   -3.7663    2.4366 C.2       1 <0>         0.4058
      9 N3         -1.0371   -4.3360    1.1938 N.am      1 <0>        -0.5667
     10 C6         -0.9852   -5.6485    1.0412 C.2       1 <0>         0.5531
     11 O1         -1.1249   -6.1685   -0.0502 O.2       1 <0>        -0.4700
     12 C7         -0.7495   -6.4541    2.2563 C.2       1 <0>        -0.2289
     13 C8         -0.6509   -7.8004    2.3910 C.2       1 <0>         0.0747
     14 C9         -0.5881   -8.4022    3.7303 C.ar      1 <0>        -0.0799
     15 C10        -0.9646   -7.6580    4.8542 C.ar      1 <0>        -0.0875
     16 C11        -0.9033   -8.2296    6.1069 C.ar      1 <0>        -0.0848
     17 C12        -0.4701   -9.5370    6.2552 C.ar      1 <0>        -0.0698
     18 C13        -0.0957  -10.2800    5.1476 C.ar      1 <0>        -0.0914
     19 C14        -0.1569   -9.7244    3.8878 C.ar      1 <0>        -0.0717
     20 Br1        -0.3887  -10.3111    7.9785 Br        1 <0>        -0.0346
     21 S2         -0.6215   -5.1774    3.5002 S.3       1 <0>         0.1253
     22 C15        -1.2681   -3.4794    0.0280 C.3       1 <0>         0.1011
     23 C16         0.0542   -2.9994   -0.5126 C.2       1 <0>        -0.1798
     24 C17         0.3613   -3.2044   -1.7694 C.2       1 <0>        -0.1556
     25 H1          0.0373    0.2281   -1.6967 H         1 <0>         0.0763
     26 H2         -0.5265    1.7528   -0.9717 H         1 <0>         0.0761
     27 H3          0.8908    0.9159   -0.2942 H         1 <0>         0.0756
     28 H4         -2.9069    0.8709   -0.4883 H         1 <0>         0.2010
     29 H5         -0.6186   -8.4299    1.5140 H         1 <0>         0.1684
     30 H6         -1.3019   -6.6384    4.7402 H         1 <0>         0.1395
     31 H7         -1.1935   -7.6566    6.9751 H         1 <0>         0.1442
     32 H8          0.2410  -11.2987    5.2712 H         1 <0>         0.1434
     33 H9          0.1313  -10.3063    3.0248 H         1 <0>         0.1456
     34 H10        -1.7910   -4.0467   -0.7419 H         1 <0>         0.1083
     35 H11        -1.8734   -2.6218    0.3216 H         1 <0>         0.0998
     36 H12         0.7487   -2.4864    0.1363 H         1 <0>         0.1312
     37 H13        -0.3331   -3.7175   -2.4182 H         1 <0>         0.0986
     38 H14         1.3089   -2.8605   -2.1568 H         1 <0>         0.1066
@<TRIPOS>BOND
     1    1    2 1
     2    1   25 1
     3    1   26 1
     4    1   27 1
     5    2    6 1
     6    2    3 2
     7    3    4 1
     8    3   28 1
     9    4    5 1
    10    5    6 2
    11    5    7 1
    12    7    8 2
    13    8   21 1
    14    8    9 1
    15    9   10 am
    16    9   22 1
    17   10   11 2
    18   10   12 1
    19   12   13 2
    20   12   21 1
    21   13   14 1
    22   13   29 1
    23   14   19 ar
    24   14   15 ar
    25   15   16 ar
    26   15   30 1
    27   16   17 ar
    28   16   31 1
    29   17   18 ar
    30   17   20 1
    31   18   19 ar
    32   18   32 1
    33   19   33 1
    34   22   23 1
    35   22   34 1
    36   22   35 1
    37   23   24 2
    38   23   36 1
    39   24   37 1
    40   24   38 1
@<TRIPOS>MOLECULE
ZINC41435140
   44    47     0     0     0
SMALL
USER_CHARGES

@<TRIPOS>ATOM
      1 C1         -0.0184    1.5028    0.0103 C.3       1 <0>        -0.0817
      2 C2          0.0021   -0.0041    0.0020 C.2       1 <0>         0.0198
      3 C3         -1.0884   -0.8035    0.0027 C.2       1 <0>        -0.2211
      4 C4         -0.6314   -2.1294   -0.0075 C.2       1 <0>        -0.1427
      5 C5          0.7491   -2.0690   -0.0140 C.2       1 <0>        -0.0260
      6 O1          1.1042   -0.7669   -0.0131 O.3       1 <0>        -0.1502
      7 C6          1.6308   -3.1726   -0.0250 C.2       1 <0>         0.0200
      8 C7          2.9796   -2.9681   -0.0305 C.2       1 <0>        -0.0447
      9 C8          3.9736   -3.9838   -0.0472 C.2       1 <0>         0.4154
     10 O2          3.7993   -5.1911   -0.0593 O.2       1 <0>        -0.4252
     11 C9          5.2595   -3.2650   -0.0468 C.ar      1 <0>        -0.3071
     12 C10         6.5916   -3.6790   -0.0585 C.ar      1 <0>         0.0675
     13 C11         7.5928   -2.7493   -0.0538 C.ar      1 <0>        -0.1909
     14 C12         7.2878   -1.3908   -0.0373 C.ar      1 <0>         0.2093
     15 C13         5.9694   -0.9650   -0.0251 C.ar      1 <0>        -0.2399
     16 C14         4.9408   -1.8972   -0.0301 C.ar      1 <0>         0.1844
     17 O3          3.5969   -1.7635   -0.0269 O.3       1 <0>        -0.2018
     18 O4          8.2907   -0.4758   -0.0327 O.3       1 <0>        -0.2938
     19 C15         7.9118    0.9020   -0.0157 C.3       1 <0>         0.0958
     20 C16         9.1485    1.7631   -0.0130 C.ar      1 <0>        -0.0836
     21 C17         9.7252    2.1401    1.1858 C.ar      1 <0>        -0.0759
     22 C18        10.8592    2.9302    1.1897 C.ar      1 <0>        -0.1004
     23 C19        11.4181    3.3439   -0.0063 C.ar      1 <0>        -0.0203
     24 C20        10.8409    2.9660   -1.2066 C.ar      1 <0>        -0.0353
     25 C21         9.7088    2.1708   -1.2087 C.ar      1 <0>        -0.0729
     26 Cl1        11.5407    3.4847   -2.7083 Cl        1 <0>        -0.0405
     27 Cl2        12.8422    4.3368   -0.0020 Cl        1 <0>        -0.0406
     28 C22         6.9256   -5.1484   -0.0758 C.3       1 <0>        -0.1279
     29 H1          1.0042    1.8801    0.0026 H         1 <0>         0.0788
     30 H2         -0.5455    1.8639   -0.8728 H         1 <0>         0.0912
     31 H3         -0.5286    1.8543    0.9071 H         1 <0>         0.0913
     32 H4         -2.1192   -0.4812    0.0101 H         1 <0>         0.1561
     33 H5         -1.2391   -3.0222   -0.0092 H         1 <0>         0.1603
     34 H6          1.2371   -4.1783   -0.0290 H         1 <0>         0.1892
     35 H7          8.6243   -3.0692   -0.0625 H         1 <0>         0.1464
     36 H8          5.7422    0.0908   -0.0116 H         1 <0>         0.1446
     37 H9          7.3152    1.1257   -0.9000 H         1 <0>         0.0835
     38 H10         7.3248    1.1063    0.8798 H         1 <0>         0.0851
     39 H11         9.2892    1.8173    2.1196 H         1 <0>         0.1433
     40 H12        11.3088    3.2249    2.1264 H         1 <0>         0.1485
     41 H13         9.2603    1.8722   -2.1448 H         1 <0>         0.1463
     42 H14         7.0004   -5.4918   -1.1076 H         1 <0>         0.0850
     43 H15         7.8768   -5.3108    0.4311 H         1 <0>         0.0776
     44 H16         6.1411   -5.7054    0.4365 H         1 <0>         0.0828
@<TRIPOS>BOND
     1    1    2 1
     2    1   29 1
     3    1   30 1
     4    1   31 1
     5    2    6 1
     6    2    3 2
     7    3    4 1
     8    3   32 1
     9    4    5 2
    10    4   33 1
    11    5    6 1
    12    5    7 1
    13    7    8 2
    14    7   34 1
    15    8   17 1
    16    8    9 1
    17    9   10 2
    18    9   11 1
    19   11   16 ar
    20   11   12 ar
    21   12   13 ar
    22   12   28 1
    23   13   14 ar
    24   13   35 1
    25   14   15 ar
    26   14   18 1
    27   15   16 ar
    28   15   36 1
    29   16   17 1
    30   18   19 1
    31   19   20 1
    32   19   37 1
    33   19   38 1
    34   20   25 ar
    35   20   21 ar
    36   21   22 ar
    37   21   39 1
    38   22   23 ar
    39   22   40 1
    40   23   24 ar
    41   23   27 1
    42   24   25 ar
    43   24   26 1
    44   25   41 1
    45   28   42 1
    46   28   43 1
    47   28   44 1
@<TRIPOS>MOLECULE
ZINC08790681
   35    37     0     0     0
SMALL
USER_CHARGES
N-[3-[(4-chlorophenyl)methylsulfanyl]-1,2,4-triazol-4-yl]-1-(2,3,6-trichlorophenyl)-methanimine
@<TRIPOS>ATOM
      1 C1          0.0021   -0.0041    0.0020 C.ar      1 <0>        -0.0854
      2 C2         -0.0167    1.3779    0.0096 C.ar      1 <0>        -0.1095
      3 C3          1.1721    2.0857    0.0021 C.ar      1 <0>        -0.0260
      4 C4          2.3790    1.4094   -0.0126 C.ar      1 <0>        -0.1095
      5 C5          2.3965    0.0274   -0.0207 C.ar      1 <0>        -0.0854
      6 C6          1.2083   -0.6792   -0.0131 C.ar      1 <0>        -0.0793
      7 C7          1.2281   -2.1860   -0.0219 C.3       1 <0>        -0.0740
      8 S1          1.2200   -2.7796   -1.7318 S.3       1 <0>         0.0426
      9 C8          1.2455   -4.5190   -1.4520 C.2       1 <0>         0.1985
     10 N1          1.2700   -5.1226   -0.2857 N.2       1 <0>        -0.2875
     11 N2          1.2794   -6.3968   -0.4522 N.2       1 <0>        -0.2614
     12 C9          1.2714   -6.6839   -1.7239 C.2       1 <0>         0.1265
     13 N3          1.2494   -5.4978   -2.4090 N.pl3     1 <0>        -0.3349
     14 N4          1.2338   -5.3231   -3.7990 N.2       1 <0>        -0.2074
     15 C10         1.2402   -6.3570   -4.5830 C.2       1 <0>         0.1507
     16 C11         1.2238   -6.1731   -6.0457 C.ar      1 <0>        -0.0454
     17 C12         1.1956   -4.8863   -6.5917 C.ar      1 <0>         0.0095
     18 C13         1.1852   -4.7216   -7.9623 C.ar      1 <0>        -0.0976
     19 C14         1.1926   -5.8259   -8.7957 C.ar      1 <0>        -0.0580
     20 C15         1.2152   -7.1035   -8.2633 C.ar      1 <0>        -0.0350
     21 C16         1.2306   -7.2843   -6.8933 C.ar      1 <0>         0.0096
     22 Cl1         1.2578   -8.8872   -6.2270 Cl        1 <0>        -0.0196
     23 Cl2         1.2236   -8.4817   -9.3189 Cl        1 <0>        -0.0243
     24 Cl3         1.1791   -3.4987   -5.5486 Cl        1 <0>         0.0042
     25 Cl4         1.1494    3.8215    0.0110 Cl        1 <0>        -0.0643
     26 H1         -0.9258   -0.5566    0.0083 H         1 <0>         0.1373
     27 H2         -0.9591    1.9053    0.0169 H         1 <0>         0.1383
     28 H3          3.3073    1.9614   -0.0178 H         1 <0>         0.1383
     29 H4          3.3386   -0.5006   -0.0325 H         1 <0>         0.1373
     30 H5          2.1275   -2.5406    0.4815 H         1 <0>         0.1109
     31 H6          0.3478   -2.5640    0.4980 H         1 <0>         0.1108
     32 H7          1.2807   -7.6732   -2.1569 H         1 <0>         0.2236
     33 H8          1.2575   -7.3523   -4.1640 H         1 <0>         0.1450
     34 H9          1.1669   -3.7279   -8.3851 H         1 <0>         0.1601
     35 H10         1.1802   -5.6905   -9.8671 H         1 <0>         0.1614
@<TRIPOS>BOND
     1    1    6 ar
     2    1    2 ar
     3    1   26 1
     4    2    3 ar
     5    2   27 1
     6    3    4 ar
     7    3   25 1
     8    4    5 ar
     9    4   28 1
    10    5    6 ar
    11    5   29 1
    12    6    7 1
    13    7    8 1
    14    7   30 1
    15    7   31 1
    16    8    9 1
    17    9   13 1
    18    9   10 2
    19   10   11 1
    20   11   12 2
    21   12   13 1
    22   12   32 1
    23   13   14 1
    24   14   15 2
    25   15   16 1
    26   15   33 1
    27   16   21 ar
    28   16   17 ar
    29   17   18 ar
    30   17   24 1
    31   18   19 ar
    32   18   34 1
    33   19   20 ar
    34   19   35 1
    35   20   21 ar
    36   20   23 1
    37   21   22 1
@<TRIPOS>MOLECULE
ZINC02396604
   50    54     0     0     0
SMALL
USER_CHARGES
2-[(2-chlorophenyl)methylsulfanyl]-3-phenyl-6,7,8,9-tetrahydropyrimido[6,5-b]quinolin-4-one
@<TRIPOS>ATOM
      1 C1          0.0025   -0.0048    0.0012 C.ar      1 <0>        -0.0957
      2 C2          0.5523    0.4328    1.1922 C.ar      1 <0>        -0.1086
      3 C3          1.7394    1.1387    1.1883 C.ar      1 <0>        -0.0870
      4 C4          2.3808    1.4090   -0.0132 C.ar      1 <0>         0.0891
      5 C5          1.8263    0.9682   -1.2074 C.ar      1 <0>        -0.0876
      6 C6          0.6389    0.2627   -1.1970 C.ar      1 <0>        -0.1091
      7 N1          3.5852    2.1244   -0.0204 N.am      1 <0>        -0.4885
      8 C7          4.7628    1.4630    0.0731 C.2       1 <0>         0.5631
      9 O1          4.8006    0.2497    0.1644 O.2       1 <0>        -0.4877
     10 C8          5.9922    2.2645    0.0554 C.ar      1 <0>        -0.2562
     11 C9          7.2566    1.6879    0.1422 C.ar      1 <0>         0.0101
     12 C10         8.3671    2.5221    0.1229 C.ar      1 <0>        -0.1537
     13 C11         8.1926    3.8892    0.0139 C.ar      1 <0>         0.2032
     14 N2          6.9787    4.4156   -0.0636 N.ar      1 <0>        -0.4811
     15 C12         5.8800    3.6710   -0.0478 C.ar      1 <0>         0.3766
     16 N3          4.6531    4.2208   -0.1289 N.2       1 <0>        -0.5214
     17 C13         3.5664    3.4879   -0.1163 C.2       1 <0>         0.3941
     18 S1          2.0063    4.2993   -0.2277 S.3       1 <0>         0.0390
     19 C14         2.5542    6.0214   -0.3286 C.3       1 <0>        -0.0744
     20 C15         1.3530    6.9254   -0.4339 C.ar      1 <0>        -0.0785
     21 C16         0.8474    7.2614   -1.6758 C.ar      1 <0>        -0.0865
     22 C17        -0.2570    8.0870   -1.7723 C.ar      1 <0>        -0.1136
     23 C18        -0.8507    8.5850   -0.6273 C.ar      1 <0>        -0.0964
     24 C19        -0.3429    8.2541    0.6146 C.ar      1 <0>        -0.1097
     25 C20         0.7597    7.4237    0.7121 C.ar      1 <0>        -0.0190
     26 Cl1         1.3985    7.0080    2.2718 Cl        1 <0>        -0.0568
     27 C21         9.3589    4.8450   -0.0314 C.3       1 <0>        -0.0740
     28 C22        10.6237    4.1756    0.5008 C.3       1 <0>        -0.1209
     29 C23        10.8137    2.8433   -0.2334 C.3       1 <0>        -0.1227
     30 C24         9.7240    1.8789    0.2310 C.3       1 <0>        -0.0743
     31 H1         -0.9256   -0.5570    0.0068 H         1 <0>         0.1329
     32 H2          0.0506    0.2261    2.1260 H         1 <0>         0.1351
     33 H3          2.1681    1.4805    2.1187 H         1 <0>         0.1275
     34 H4          2.3227    1.1772   -2.1436 H         1 <0>         0.1277
     35 H5          0.2069   -0.0801   -2.1256 H         1 <0>         0.1351
     36 H6          7.3713    0.6170    0.2230 H         1 <0>         0.1496
     37 H7          3.1225    6.2750    0.5663 H         1 <0>         0.1187
     38 H8          3.1847    6.1511   -1.2082 H         1 <0>         0.1173
     39 H9          1.3132    6.8760   -2.5707 H         1 <0>         0.1369
     40 H10        -0.6537    8.3465   -2.7427 H         1 <0>         0.1343
     41 H11        -1.7113    9.2331   -0.7035 H         1 <0>         0.1360
     42 H12        -0.8063    8.6437    1.5089 H         1 <0>         0.1379
     43 H13         9.5254    5.1602   -1.0615 H         1 <0>         0.0926
     44 H14         9.1311    5.7191    0.5787 H         1 <0>         0.0926
     45 H15        11.4836    4.8201    0.3187 H         1 <0>         0.0785
     46 H16        10.5205    3.9962    1.5710 H         1 <0>         0.0697
     47 H17        10.7304    3.0013   -1.3087 H         1 <0>         0.0689
     48 H18        11.7948    2.4308    0.0022 H         1 <0>         0.0753
     49 H19         9.9084    1.6010    1.2687 H         1 <0>         0.0818
     50 H20         9.7478    0.9835   -0.3900 H         1 <0>         0.0799
@<TRIPOS>BOND
     1    1    6 ar
     2    1    2 ar
     3    1   31 1
     4    2    3 ar
     5    2   32 1
     6    3    4 ar
     7    3   33 1
     8    4    5 ar
     9    4    7 1
    10    5    6 ar
    11    5   34 1
    12    6   35 1
    13    7   17 1
    14    7    8 am
    15    8    9 2
    16    8   10 1
    17   10   15 ar
    18   10   11 ar
    19   11   12 ar
    20   11   36 1
    21   12   30 1
    22   12   13 ar
    23   13   14 ar
    24   13   27 1
    25   14   15 ar
    26   15   16 1
    27   16   17 2
    28   17   18 1
    29   18   19 1
    30   19   20 1
    31   19   37 1
    32   19   38 1
    33   20   25 ar
    34   20   21 ar
    35   21   22 ar
    36   21   39 1
    37   22   23 ar
    38   22   40 1
    39   23   24 ar
    40   23   41 1
    41   24   25 ar
    42   24   42 1
    43   25   26 1
    44   27   28 1
    45   27   43 1
    46   27   44 1
    47   28   29 1
    48   28   45 1
    49   28   46 1
    50   29   30 1
    51   29   47 1
    52   29   48 1
    53   30   49 1
    54   30   50 1
@<TRIPOS>MOLECULE
ZINC33812381
   37    40     0     0     0
SMALL
USER_CHARGES
[(2Z)-3-oxo-2-(2-thienylmethylene)benzofuran-6-yl] 4-bromobenzoate
@<TRIPOS>ATOM
      1 C1          1.1882    1.8906    0.5140 C.2       1 <0>        -0.1756
      2 C2          0.0400    1.1462    0.4213 C.2       1 <0>        -0.1021
      3 C3         -1.1617    1.8455    0.3524 C.2       1 <0>        -0.1902
      4 S1         -0.6049    3.5386    0.4331 S.3       1 <0>         0.1794
      5 C4          1.1007    3.2475    0.5391 C.2       1 <0>        -0.2011
      6 C5         -2.4785    1.3452    0.2480 C.2       1 <0>         0.0487
      7 C6         -3.5341    2.2083    0.1933 C.2       1 <0>        -0.0610
      8 C7         -4.9018    1.8407    0.0883 C.2       1 <0>         0.4160
      9 O1         -5.3637    0.7131    0.0296 O.2       1 <0>        -0.4206
     10 C8         -5.6429    3.1141    0.0651 C.ar      1 <0>        -0.2615
     11 C9         -6.9972    3.4360   -0.0228 C.ar      1 <0>         0.0081
     12 C10        -7.3866    4.7458   -0.0200 C.ar      1 <0>        -0.1524
     13 C11        -6.4362    5.7594    0.0703 C.ar      1 <0>         0.1578
     14 C12        -5.0877    5.4546    0.1581 C.ar      1 <0>        -0.1430
     15 C13        -4.6761    4.1286    0.1565 C.ar      1 <0>         0.1586
     16 O2         -3.4542    3.5590    0.2356 O.3       1 <0>        -0.2064
     17 O3         -6.8346    7.0575    0.0727 O.3       1 <0>        -0.2835
     18 C14        -6.5267    7.7939   -1.0131 C.2       1 <0>         0.5095
     19 O4         -6.0131    7.2662   -1.9793 O.2       1 <0>        -0.4724
     20 C15        -6.8136    9.2423   -1.0284 C.ar      1 <0>        -0.1134
     21 C16        -7.4094    9.8510    0.0786 C.ar      1 <0>        -0.0533
     22 C17        -7.6699   11.2049    0.0600 C.ar      1 <0>        -0.1031
     23 C18        -7.3527   11.9588   -1.0575 C.ar      1 <0>        -0.0555
     24 C19        -6.7667   11.3604   -2.1604 C.ar      1 <0>        -0.1013
     25 C20        -6.4957   10.0083   -2.1522 C.ar      1 <0>        -0.0440
     26 Br1        -7.7207   13.8136   -1.0774 Br        1 <0>        -0.0317
     27 H1          2.1513    1.4046    0.5662 H         1 <0>         0.1382
     28 H2          0.0672    0.0668    0.3982 H         1 <0>         0.1457
     29 H3          1.9009    3.9696    0.6080 H         1 <0>         0.1886
     30 H4         -2.6530    0.2598    0.2108 H         1 <0>         0.1843
     31 H5         -7.7365    2.6518   -0.0925 H         1 <0>         0.1485
     32 H6         -8.4351    4.9956   -0.0876 H         1 <0>         0.1491
     33 H7         -4.3576    6.2473    0.2281 H         1 <0>         0.1457
     34 H8         -7.6616    9.2632    0.9488 H         1 <0>         0.1509
     35 H9         -8.1261   11.6777    0.9172 H         1 <0>         0.1461
     36 H10        -6.5217   11.9538   -3.0288 H         1 <0>         0.1471
     37 H11        -6.0390    9.5427   -3.0130 H         1 <0>         0.1501
@<TRIPOS>BOND
     1    1    5 2
     2    1    2 1
     3    1   27 1
     4    2    3 2
     5    2   28 1
     6    3    4 1
     7    3    6 1
     8    4    5 1
     9    5   29 1
    10    6    7 2
    11    6   30 1
    12    7   16 1
    13    7    8 1
    14    8    9 2
    15    8   10 1
    16   10   15 ar
    17   10   11 ar
    18   11   12 ar
    19   11   31 1
    20   12   13 ar
    21   12   32 1
    22   13   14 ar
    23   13   17 1
    24   14   15 ar
    25   14   33 1
    26   15   16 1
    27   17   18 1
    28   18   19 2
    29   18   20 1
    30   20   25 ar
    31   20   21 ar
    32   21   22 ar
    33   21   34 1
    34   22   23 ar
    35   22   35 1
    36   23   24 ar
    37   23   26 1
    38   24   25 ar
    39   24   36 1
    40   25   37 1
@<TRIPOS>MOLECULE
ZINC40055483
   50    54     0     0     0
SMALL
USER_CHARGES

@<TRIPOS>ATOM
      1 C1         -0.0184    1.5028    0.0103 C.3       1 <0>        -0.1197
      2 C2          0.0021   -0.0041    0.0020 C.ar      1 <0>        -0.1023
      3 C3          0.0057   -0.6866   -1.2011 C.ar      1 <0>        -0.0910
      4 C4          0.0239   -2.0662   -1.2153 C.ar      1 <0>        -0.0896
      5 C5          0.0392   -2.7741   -0.0138 C.ar      1 <0>        -0.0010
      6 C6          0.0360   -2.0830    1.1965 C.ar      1 <0>        -0.1278
      7 C7          0.0229   -0.7006    1.1993 C.ar      1 <0>         0.1014
      8 F1          0.0249   -0.0283    2.3711 F         1 <0>        -0.1311
      9 C8          0.0583   -4.2560   -0.0240 C.2       1 <0>         0.1576
     10 C9          0.7468   -5.1270    0.9370 C.2       1 <0>        -0.2208
     11 C10         0.4897   -6.4267    0.5370 C.2       1 <0>         0.1115
     12 N1         -0.2822   -6.3727   -0.5637 N.pl3     1 <0>        -0.3056
     13 N2         -0.5424   -5.0392   -0.8913 N.2       1 <0>        -0.2668
     14 C11        -0.7572   -7.4844   -1.2710 C.ar      1 <0>         0.1457
     15 C12        -0.4415   -8.7676   -0.8440 C.ar      1 <0>        -0.1365
     16 C13        -0.9118   -9.8617   -1.5433 C.ar      1 <0>        -0.0916
     17 C14        -1.6958   -9.6806   -2.6680 C.ar      1 <0>        -0.1218
     18 C15        -2.0115   -8.4041   -3.0960 C.ar      1 <0>        -0.0950
     19 C16        -1.5494   -7.3059   -2.3975 C.ar      1 <0>        -0.1130
     20 C17         1.5473   -4.7043    2.0892 C.2       1 <0>         0.0543
     21 C18         2.1269   -5.6359    2.8933 C.2       1 <0>        -0.0732
     22 C19         2.9207   -5.3649    4.0423 C.2       1 <0>         0.4170
     23 O1          3.2152   -4.2736    4.4991 O.2       1 <0>        -0.4219
     24 C20         3.3101   -6.6893    4.5618 C.ar      1 <0>        -0.2587
     25 C21         4.0757   -7.1073    5.6488 C.ar      1 <0>         0.0054
     26 C22         4.2616   -8.4552    5.8745 C.ar      1 <0>        -0.0812
     27 C23         3.6891   -9.3891    5.0228 C.ar      1 <0>        -0.0024
     28 C24         2.9303   -8.9857    3.9443 C.ar      1 <0>        -0.1302
     29 C25         2.7299   -7.6318    3.6996 C.ar      1 <0>         0.1484
     30 O2          2.0411   -6.9782    2.7390 O.3       1 <0>        -0.2162
     31 C26         3.8991  -10.8593    5.2786 C.3       1 <0>        -0.1269
     32 Cl1         5.2138   -8.9842    7.2262 Cl        1 <0>        -0.0501
     33 H1          1.0042    1.8801    0.0026 H         1 <0>         0.0790
     34 H2         -0.5455    1.8639   -0.8728 H         1 <0>         0.0759
     35 H3         -0.5286    1.8543    0.9071 H         1 <0>         0.0731
     36 H4         -0.0062   -0.1384   -2.1315 H         1 <0>         0.1404
     37 H5          0.0260   -2.5972   -2.1557 H         1 <0>         0.1365
     38 H6          0.0474   -2.6261    2.1299 H         1 <0>         0.1420
     39 H7          0.8456   -7.3239    1.0215 H         1 <0>         0.1965
     40 H8          0.1713   -8.9097    0.0339 H         1 <0>         0.1314
     41 H9         -0.6666  -10.8599   -1.2117 H         1 <0>         0.1363
     42 H10        -2.0620  -10.5378   -3.2133 H         1 <0>         0.1320
     43 H11        -2.6234   -8.2658   -3.9751 H         1 <0>         0.1352
     44 H12        -1.8000   -6.3093   -2.7297 H         1 <0>         0.1398
     45 H13         1.6772   -3.6531    2.3001 H         1 <0>         0.1699
     46 H14         4.5214   -6.3795    6.3107 H         1 <0>         0.1472
     47 H15         2.4905   -9.7228    3.2888 H         1 <0>         0.1483
     48 H16         3.1064  -11.2321    5.9272 H         1 <0>         0.0873
     49 H17         3.8782  -11.3994    4.3320 H         1 <0>         0.0797
     50 H18         4.8646  -11.0097    5.7615 H         1 <0>         0.0827
@<TRIPOS>BOND
     1    1    2 1
     2    1   33 1
     3    1   34 1
     4    1   35 1
     5    2    7 ar
     6    2    3 ar
     7    3    4 ar
     8    3   36 1
     9    4    5 ar
    10    4   37 1
    11    5    6 ar
    12    5    9 1
    13    6    7 ar
    14    6   38 1
    15    7    8 1
    16    9   13 2
    17    9   10 1
    18   10   11 2
    19   10   20 1
    20   11   12 1
    21   11   39 1
    22   12   13 1
    23   12   14 1
    24   14   19 ar
    25   14   15 ar
    26   15   16 ar
    27   15   40 1
    28   16   17 ar
    29   16   41 1
    30   17   18 ar
    31   17   42 1
    32   18   19 ar
    33   18   43 1
    34   19   44 1
    35   20   21 2
    36   20   45 1
    37   21   30 1
    38   21   22 1
    39   22   23 2
    40   22   24 1
    41   24   29 ar
    42   24   25 ar
    43   25   26 ar
    44   25   46 1
    45   26   27 ar
    46   26   32 1
    47   27   28 ar
    48   27   31 1
    49   28   29 ar
    50   28   47 1
    51   29   30 1
    52   31   48 1
    53   31   49 1
    54   31   50 1
