@<TRIPOS>MOLECULE
4TRJ-665
 43 45 0 0 0
SMALL
SF_CHARGES


@<TRIPOS>ATOM
1    C         6.4240   29.5620   58.3480  C.3        1 SUBUNIT     -0.0596
2    C         7.3010   30.6680   58.9070  C.3        1 SUBUNIT     -0.0781
3    C         6.7530   32.0330   58.5160  C.3        1 SUBUNIT      0.1813
4    C         5.3120   32.2150   58.9710  C.3        1 SUBUNIT     -0.0781
5    C         4.4270   31.1170   58.3840  C.3        1 SUBUNIT     -0.0596
6    C         4.9550   29.7330   58.7330  C.3        1 SUBUNIT     -0.0641
7    C         8.6230   33.6460   58.4010  C.2        1 SUBUNIT      0.6358
8    C         9.2700   34.6370   59.2420  C.3        1 SUBUNIT     -0.0801
9    C         8.7940   34.3720   60.6660  C.3        1 SUBUNIT     -0.0531
10   C         7.4690   33.6530   60.4100  C.3        1 SUBUNIT      0.1364
11   N         7.5930   33.0730   59.0650  N.am       1 SUBUNIT     -0.4779
12   C         9.7630   33.4960   61.3740  C.2        1 SUBUNIT      0.6283
13   N        10.9300   34.1130   61.8790  N.am       1 SUBUNIT     -0.5381
14   O         9.5590   32.3010   61.4770  O.2        1 SUBUNIT     -0.5509
15   O         8.9510   33.3290   57.2620  O.2        1 SUBUNIT     -0.5500
16   Br       12.7690   29.6430   64.1160  Br         1 SUBUNIT     -0.1304
17   C        11.8940   32.0940   62.9380  C.2        1 SUBUNIT     -0.1284
18   C        12.9980   31.4360   63.4510  C.2        1 SUBUNIT      0.0439
19   C        14.2140   32.1010   63.4900  C.2        1 SUBUNIT     -0.1162
20   C        14.3340   33.4040   63.0220  C.2        1 SUBUNIT     -0.1076
21   C        13.2260   34.0490   62.4910  C.2        1 SUBUNIT     -0.1196
22   C        11.9940   33.3990   62.4770  C.2        1 SUBUNIT      0.1097
23   H         6.5060   29.5684   57.2561  H          1 SUBUNIT      0.0509
24   H         6.7813   28.6023   58.7357  H          1 SUBUNIT      0.0509
25   H         7.3269   30.5891   59.9988  H          1 SUBUNIT      0.0516
26   H         8.3150   30.5588   58.5084  H          1 SUBUNIT      0.0516
27   H         6.7804   32.1269   57.4254  H          1 SUBUNIT      0.0339
28   H         5.2708   32.1671   60.0642  H          1 SUBUNIT      0.0516
29   H         4.9485   33.1914   58.6340  H          1 SUBUNIT      0.0516
30   H         3.4137   31.2224   58.7854  H          1 SUBUNIT      0.0509
31   H         4.4015   31.2233   57.2945  H          1 SUBUNIT      0.0509
32   H         4.3601   28.9847   58.1989  H          1 SUBUNIT      0.0509
33   H         4.8522   29.5793   59.8123  H          1 SUBUNIT      0.0509
34   H        10.3572   34.5283   59.1696  H          1 SUBUNIT      0.0463
35   H         8.9806   35.6417   58.9166  H          1 SUBUNIT      0.0463
36   H         8.7069   35.2576   61.3042  H          1 SUBUNIT      0.0425
37   H         7.3062   32.8597   61.1470  H          1 SUBUNIT      0.0297
38   H         6.6306   34.3567   60.4392  H          1 SUBUNIT      0.0297
39   H        11.0077   35.1156   61.8090  H          1 SUBUNIT      0.3149
40   H        10.9464   31.5859   62.8967  H          1 SUBUNIT      0.1015
41   H        15.0780   31.5991   63.8893  H          1 SUBUNIT      0.1006
42   H        15.2817   33.9112   63.0708  H          1 SUBUNIT      0.0998
43   H        13.3199   35.0444   62.0933  H          1 SUBUNIT      0.0992
@<TRIPOS>BOND
     1    1    2 1
     2    1    6 1
     3    2    3 1
     4    3    4 1
     5    3   11 1
     6    4    5 1
     7    5    6 1
     8    7    8 1
     9    7   11 1
    10    7   15 2
    11    8    9 1
    12    9   10 1
    13    9   12 1
    14   10   11 1
    15   12   13 1
    16   12   14 2
    17   13   22 1
    18   16   18 1
    19   17   18 2
    20   17   22 1
    21   18   19 1
    22   19   20 2
    23   20   21 1
    24   21   22 2
    25    1   23 1
    26    1   24 1
    27    2   25 1
    28    2   26 1
    29    3   27 1
    30    4   28 1
    31    4   29 1
    32    5   30 1
    33    5   31 1
    34    6   32 1
    35    6   33 1
    36    8   34 1
    37    8   35 1
    38    9   36 1
    39   10   37 1
    40   10   38 1
    41   13   39 1
    42   17   40 1
    43   19   41 1
    44   20   42 1
    45   21   43 1
