@<TRIPOS>MOLECULE
CHEMBL476553
   48    51     0     0     0
SMALL
USER_CHARGES

@<TRIPOS>ATOM
      1 C1         -0.0173    1.4248    0.0099 C.3       1 <0>         0.0337
      2 O1          0.0021   -0.0041    0.0020 O.3       1 <0>        -0.3138
      3 C2          0.6069   -0.6082   -1.0576 C.ar      1 <0>         0.0175
      4 C3         -0.1341   -0.9228   -2.1955 C.ar      1 <0>         0.1733
      5 C4          0.4680   -1.5373   -3.2817 C.ar      1 <0>        -0.1226
      6 C5          1.8192   -1.8455   -3.2449 C.ar      1 <0>         0.1807
      7 C6          2.5701   -1.5300   -2.0993 C.ar      1 <0>        -0.2484
      8 C7          1.9594   -0.9043   -1.0058 C.ar      1 <0>         0.1975
      9 O2          2.6860   -0.5946    0.0992 O.3       1 <0>        -0.4655
     10 C8          4.0037   -1.8673   -2.0840 C.2       1 <0>         0.4243
     11 O3          4.7037   -1.6168   -1.1160 O.2       1 <0>        -0.4488
     12 C9          4.5378   -2.4935   -3.2347 C.2       1 <0>        -0.3059
     13 C10         3.7251   -2.7566   -4.2935 C.2       1 <0>         0.2067
     14 O4          2.4195   -2.4447   -4.2958 O.3       1 <0>        -0.2128
     15 C11         4.3006   -3.4096   -5.4844 C.ar      1 <0>        -0.0646
     16 C12         5.6553   -3.7518   -5.5096 C.ar      1 <0>        -0.0705
     17 C13         6.1911   -4.3622   -6.6230 C.ar      1 <0>        -0.1302
     18 C14         5.3881   -4.6387   -7.7210 C.ar      1 <0>         0.1100
     19 C15         4.0362   -4.2998   -7.7029 C.ar      1 <0>         0.0807
     20 C16         3.4910   -3.6928   -6.5879 C.ar      1 <0>        -0.0921
     21 O5          3.2526   -4.5713   -8.7808 O.3       1 <0>        -0.4824
     22 O6          5.9212   -5.2406   -8.8160 O.3       1 <0>        -0.4846
     23 C17        -0.3470   -1.8714   -4.5044 C.3       1 <0>        -0.0333
     24 C18        -0.3137   -0.7094   -5.4633 C.ar      1 <0>        -0.0811
     25 C19        -1.2687    0.2863   -5.3762 C.ar      1 <0>        -0.1208
     26 C20        -1.2381    1.3522   -6.2558 C.ar      1 <0>        -0.1167
     27 C21        -0.2523    1.4228   -7.2222 C.ar      1 <0>        -0.1202
     28 C22         0.7033    0.4277   -7.3088 C.ar      1 <0>        -0.1147
     29 C23         0.6752   -0.6361   -6.4265 C.ar      1 <0>        -0.1102
     30 O7         -1.4586   -0.6248   -2.2398 O.3       1 <0>        -0.4708
     31 H1          1.0053    1.8021    0.0021 H         1 <0>         0.0528
     32 H2         -0.5445    1.7859   -0.8732 H         1 <0>         0.0428
     33 H3         -0.5275    1.7763    0.9067 H         1 <0>         0.1004
     34 H4          2.7099   -1.2967    0.7638 H         1 <0>         0.4050
     35 H5          5.5836   -2.7605   -3.2725 H         1 <0>         0.1657
     36 H6          6.2824   -3.5375   -4.6569 H         1 <0>         0.1451
     37 H7          7.2383   -4.6258   -6.6414 H         1 <0>         0.1467
     38 H8          2.4426   -3.4341   -6.5707 H         1 <0>         0.1452
     39 H9          2.8321   -5.4416   -8.7521 H         1 <0>         0.3917
     40 H10         5.8820   -6.2065   -8.7921 H         1 <0>         0.3949
     41 H11         0.0700   -2.7543   -4.9889 H         1 <0>         0.0906
     42 H12        -1.3776   -2.0708   -4.2108 H         1 <0>         0.0987
     43 H13        -2.0389    0.2311   -4.6211 H         1 <0>         0.1216
     44 H14        -1.9847    2.1297   -6.1881 H         1 <0>         0.1235
     45 H15        -0.2288    2.2553   -7.9099 H         1 <0>         0.1224
     46 H16         1.4733    0.4826   -8.0641 H         1 <0>         0.1229
     47 H17         1.4240   -1.4117   -6.4917 H         1 <0>         0.1209
     48 H18        -1.6525    0.2534   -2.5951 H         1 <0>         0.3952
@<TRIPOS>BOND
     1    1    2 1
     2    1   31 1
     3    1   32 1
     4    1   33 1
     5    2    3 1
     6    3    8 ar
     7    3    4 ar
     8    4    5 ar
     9    4   30 1
    10    5    6 ar
    11    5   23 1
    12    6   14 1
    13    6    7 ar
    14    7    8 ar
    15    7   10 1
    16    8    9 1
    17    9   34 1
    18   10   11 2
    19   10   12 1
    20   12   13 2
    21   12   35 1
    22   13   14 1
    23   13   15 1
    24   15   20 ar
    25   15   16 ar
    26   16   17 ar
    27   16   36 1
    28   17   18 ar
    29   17   37 1
    30   18   19 ar
    31   18   22 1
    32   19   20 ar
    33   19   21 1
    34   20   38 1
    35   21   39 1
    36   22   40 1
    37   23   24 1
    38   23   41 1
    39   23   42 1
    40   24   29 ar
    41   24   25 ar
    42   25   26 ar
    43   25   43 1
    44   26   27 ar
    45   26   44 1
    46   27   28 ar
    47   27   45 1
    48   28   29 ar
    49   28   46 1
    50   29   47 1
    51   30   48 1
@<TRIPOS>MOLECULE
CHEMBL82242
   52    55     0     0     0
SMALL
USER_CHARGES

@<TRIPOS>ATOM
      1 C1          3.7861   -3.3436    3.1034 C.3       1 <0>        -0.1483
      2 C2          2.6050   -3.2915    2.1322 C.3       1 <0>         0.0466
      3 H1          2.2897   -2.2567    1.9986 H         1 <0>         0.0863
      4 C3          3.0285   -3.8747    0.7816 C.3       1 <0>         0.0914
      5 H2          3.3823   -4.8962    0.9207 H         1 <0>         0.0770
      6 C4          1.8249   -3.8744   -0.1659 C.3       1 <0>         0.1265
      7 H3          1.5017   -2.8489   -0.3445 H         1 <0>         0.0821
      8 C5          0.6827   -4.6671    0.4771 C.3       1 <0>         0.0644
      9 H4         -0.1965   -4.6256   -0.1657 H         1 <0>         0.0861
     10 C6          0.3498   -4.0533    1.8395 C.3       1 <0>         0.2102
     11 H5         -0.4333   -4.6393    2.3206 H         1 <0>         0.1208
     12 O1          1.5194   -4.0560    2.6606 O.3       1 <0>        -0.3667
     13 O2         -0.1027   -2.7099    1.6592 O.3       1 <0>        -0.3025
     14 C7         -0.7151   -2.1166    2.7199 C.2       1 <0>        -0.0759
     15 C8         -1.9215   -2.6522    3.2408 C.2       1 <0>         0.4119
     16 O3         -2.4346   -3.6481    2.7559 O.2       1 <0>        -0.4446
     17 C9         -2.5296   -1.9605    4.3885 C.ar      1 <0>        -0.2631
     18 C10        -3.7203   -2.4206    4.9665 C.ar      1 <0>         0.2231
     19 C11        -4.2600   -1.7436    6.0439 C.ar      1 <0>        -0.2037
     20 C12        -3.6243   -0.6142    6.5492 C.ar      1 <0>         0.1976
     21 C13        -2.4465   -0.1534    5.9826 C.ar      1 <0>        -0.1812
     22 C14        -1.8893   -0.8189    4.9011 C.ar      1 <0>         0.1812
     23 O4         -0.7426   -0.3828    4.3388 O.3       1 <0>        -0.2014
     24 C15        -0.1719   -1.0067    3.2941 C.2       1 <0>         0.1876
     25 C16         1.0856   -0.4666    2.7451 C.ar      1 <0>        -0.0620
     26 C17         1.2224   -0.2725    1.3677 C.ar      1 <0>        -0.0591
     27 C18         2.3984    0.2329    0.8566 C.ar      1 <0>        -0.1269
     28 C19         3.4487    0.5501    1.7066 C.ar      1 <0>         0.1147
     29 C20         3.3195    0.3592    3.0811 C.ar      1 <0>         0.0784
     30 C21         2.1416   -0.1421    3.6014 C.ar      1 <0>        -0.0914
     31 O5          4.3508    0.6711    3.9109 O.3       1 <0>        -0.4820
     32 O6          4.6061    1.0477    1.1975 O.3       1 <0>        -0.4822
     33 O7         -4.1634    0.0435    7.6074 O.3       1 <0>        -0.4862
     34 O8         -4.3392   -3.5225    4.4718 O.3       1 <0>        -0.4715
     35 O9          1.0839   -6.0277    0.6502 O.3       1 <0>        -0.5299
     36 O10         2.1924   -4.4826   -1.4057 O.3       1 <0>        -0.5410
     37 O11         4.0762   -3.0781    0.2249 O.3       1 <0>        -0.5463
     38 H6          4.1013   -4.3785    3.2369 H         1 <0>         0.0675
     39 H7          4.6142   -2.7608    2.7001 H         1 <0>         0.0755
     40 H8          3.4843   -2.9288    4.0651 H         1 <0>         0.0688
     41 H9         -5.1776   -2.0921    6.4943 H         1 <0>         0.1523
     42 H10        -1.9622    0.7247    6.3837 H         1 <0>         0.1557
     43 H11         0.4068   -0.5188    0.7039 H         1 <0>         0.1422
     44 H12         2.5030    0.3822   -0.2079 H         1 <0>         0.1456
     45 H13         2.0387   -0.2867    4.6667 H         1 <0>         0.1413
     46 H14         4.3331    1.5820    4.2351 H         1 <0>         0.3908
     47 H15         4.6253    2.0124    1.1341 H         1 <0>         0.3934
     48 H16        -3.8549   -0.2748    8.4669 H         1 <0>         0.4052
     49 H17        -4.0537   -4.3509    4.8809 H         1 <0>         0.4037
     50 H18         0.3820   -6.6060    0.9787 H         1 <0>         0.3827
     51 H19         1.4763   -4.5164   -2.0547 H         1 <0>         0.3777
     52 H20         4.8694   -3.0306    0.7760 H         1 <0>         0.3778
@<TRIPOS>BOND
     1    1    2 1
     2    1   38 1
     3    1   39 1
     4    1   40 1
     5    2    3 1
     6    2   12 1
     7    2    4 1
     8    4    5 1
     9    4    6 1
    10    4   37 1
    11    6    7 1
    12    6    8 1
    13    6   36 1
    14    8    9 1
    15    8   10 1
    16    8   35 1
    17   10   11 1
    18   10   12 1
    19   10   13 1
    20   13   14 1
    21   14   24 2
    22   14   15 1
    23   15   16 2
    24   15   17 1
    25   17   22 ar
    26   17   18 ar
    27   18   19 ar
    28   18   34 1
    29   19   20 ar
    30   19   41 1
    31   20   21 ar
    32   20   33 1
    33   21   22 ar
    34   21   42 1
    35   22   23 1
    36   23   24 1
    37   24   25 1
    38   25   30 ar
    39   25   26 ar
    40   26   27 ar
    41   26   43 1
    42   27   28 ar
    43   27   44 1
    44   28   29 ar
    45   28   32 1
    46   29   30 ar
    47   29   31 1
    48   30   45 1
    49   31   46 1
    50   32   47 1
    51   33   48 1
    52   34   49 1
    53   35   50 1
    54   36   51 1
    55   37   52 1
@<TRIPOS>MOLECULE
CHEMBL8370
   35    36     0     0     0
SMALL
USER_CHARGES

@<TRIPOS>ATOM
      1 C1         -0.0258    1.3299    0.2008 C.ar      1 <0>        -0.1186
      2 C2          1.1725    2.0069    0.2972 C.ar      1 <0>        -0.0481
      3 C3          2.3362    1.4370   -0.2216 C.ar      1 <0>        -0.1299
      4 C4          2.2789    0.1842   -0.8351 C.ar      1 <0>         0.0017
      5 C5          1.0745   -0.4819   -0.9249 C.ar      1 <0>        -0.0636
      6 C6         -0.0756    0.0889   -0.4085 C.ar      1 <0>        -0.0317
      7 N1          1.0118   -1.8100   -1.5754 N.pl3     1 <0>         0.0380
      8 O1          2.0156   -2.3097   -2.0274 O.2       1 <0>        -0.1571
      9 O2         -0.0433   -2.3950   -1.6548 O.3       1 <0>        -0.1589
     10 C7          3.6234    2.1568   -0.1223 C.2       1 <0>         0.5720
     11 O3          4.6641    1.5333   -0.0457 O.2       1 <0>        -0.5050
     12 N2          3.6432    3.5044   -0.1166 N.am      1 <0>        -0.5071
     13 C8          2.3861    4.2553   -0.0705 C.3       1 <0>        -0.0160
     14 C9          2.1059    4.6792    1.3483 C.2       1 <0>         0.4762
     15 O4          2.8841    4.3816    2.2384 O.co2     1 <0>        -0.6620
     16 O5          1.1010    5.3197    1.6060 O.co2     1 <0>        -0.6749
     17 C10         4.8638    4.1859   -0.1547 C.ar      1 <0>         0.2367
     18 C11         4.8851    5.5686   -0.2839 C.ar      1 <0>        -0.1508
     19 C12         6.0921    6.2387   -0.3213 C.ar      1 <0>        -0.0274
     20 C13         7.2787    5.5343   -0.2306 C.ar      1 <0>        -0.0902
     21 C14         7.2610    4.1576   -0.1018 C.ar      1 <0>        -0.0300
     22 C15         6.0572    3.4821   -0.0576 C.ar      1 <0>        -0.1747
     23 N3          8.5707    6.2556   -0.2719 N.pl3     1 <0>         0.0462
     24 O6          8.5877    7.4592   -0.3849 O.2       1 <0>        -0.1763
     25 O7          9.6088    5.6411   -0.1927 O.3       1 <0>        -0.1755
     26 H1         -0.9261    1.7678    0.6058 H         1 <0>         0.1597
     27 H2          1.2100    2.9759    0.7727 H         1 <0>         0.1831
     28 H3          3.1757   -0.2621   -1.2389 H         1 <0>         0.1643
     29 H4         -1.0161   -0.4369   -0.4814 H         1 <0>         0.1590
     30 H5          2.4669    5.1383   -0.7043 H         1 <0>         0.0945
     31 H6          1.5726    3.6242   -0.4285 H         1 <0>         0.1122
     32 H7          3.9587    6.1192   -0.3555 H         1 <0>         0.1484
     33 H8          6.1094    7.3138   -0.4217 H         1 <0>         0.1529
     34 H9          8.1895    3.6104   -0.0316 H         1 <0>         0.1519
     35 H10         6.0439    2.4073    0.0478 H         1 <0>         0.2009
@<TRIPOS>BOND
     1    1    6 ar
     2    1    2 ar
     3    1   26 1
     4    2    3 ar
     5    2   27 1
     6    3    4 ar
     7    3   10 1
     8    4    5 ar
     9    4   28 1
    10    5    6 ar
    11    5    7 1
    12    6   29 1
    13    7    8 2
    14    7    9 1
    15   10   11 2
    16   10   12 am
    17   12   13 1
    18   12   17 1
    19   13   14 1
    20   13   30 1
    21   13   31 1
    22   14   15 2
    23   14   16 1
    24   17   22 ar
    25   17   18 ar
    26   18   19 ar
    27   18   32 1
    28   19   20 ar
    29   19   33 1
    30   20   21 ar
    31   20   23 1
    32   21   22 ar
    33   21   34 1
    34   22   35 1
    35   23   24 2
    36   23   25 1
@<TRIPOS>MOLECULE
CHEMBL69371
   34    36     0     0     0
SMALL
USER_CHARGES

@<TRIPOS>ATOM
      1 C1         -0.0168    1.3860    0.0097 C.ar      1 <0>        -0.1477
      2 C2          1.1628    2.0841    0.0021 C.ar      1 <0>        -0.0548
      3 C3          2.3582    1.3546   -0.0132 C.ar      1 <0>        -0.0923
      4 C4          3.6647    2.0089   -0.0216 C.2       1 <0>         0.1222
      5 N1          4.7504    1.2934   -0.0359 N.2       1 <0>        -0.1153
      6 N2          4.7306   -0.1016   -0.0433 N.am      1 <0>        -0.4364
      7 C5          3.5745   -0.7964   -0.0364 C.2       1 <0>         0.5288
      8 O1          3.5830   -2.0143   -0.0431 O.2       1 <0>        -0.5162
      9 C6          2.3023   -0.0561   -0.0203 C.ar      1 <0>         0.0787
     10 N3          1.1308   -0.6781   -0.0132 N.ar      1 <0>        -0.4275
     11 C7          0.0021   -0.0041    0.0020 C.ar      1 <0>         0.0996
     12 C8          6.0005   -0.8319   -0.0595 C.3       1 <0>         0.1774
     13 C9          6.4223   -1.0746   -1.4857 C.ar      1 <0>        -0.1386
     14 C10         6.1934   -2.3040   -2.0745 C.ar      1 <0>        -0.0592
     15 C11         6.5795   -2.5272   -3.3827 C.ar      1 <0>        -0.1180
     16 C12         7.1960   -1.5204   -4.1042 C.ar      1 <0>        -0.0558
     17 C13         7.4262   -0.2901   -3.5168 C.ar      1 <0>        -0.1436
     18 C14         7.0339   -0.0643   -2.2082 C.ar      1 <0>         0.1439
     19 F1          7.2533    1.1392   -1.6349 F         1 <0>        -0.0847
     20 Br1         7.7244   -1.8273   -5.8938 Br        1 <0>        -0.0470
     21 C15         3.7540    3.5133   -0.0143 C.3       1 <0>        -0.1337
     22 C16         5.2020    3.9306   -0.0253 C.2       1 <0>         0.4878
     23 O2          6.0801    3.0849   -0.0380 O.co2     1 <0>        -0.6415
     24 O3          5.4953    5.1140   -0.0216 O.co2     1 <0>        -0.7059
     25 H1         -0.9585    1.9145    0.0260 H         1 <0>         0.1447
     26 H2          1.1702    3.1641    0.0075 H         1 <0>         0.1524
     27 H3         -0.9335   -0.5436    0.0081 H         1 <0>         0.1646
     28 H4          6.7640   -0.2443    0.4503 H         1 <0>         0.1137
     29 H5          5.8767   -1.7873    0.4504 H         1 <0>         0.1070
     30 H6          5.7129   -3.0908   -1.5119 H         1 <0>         0.1451
     31 H7          6.4003   -3.4882   -3.8418 H         1 <0>         0.1372
     32 H8          7.9080    0.4957   -4.0796 H         1 <0>         0.1452
     33 H9          3.2544    3.9112   -0.8976 H         1 <0>         0.0846
     34 H10         3.2707    3.9015    0.8823 H         1 <0>         0.0854
@<TRIPOS>BOND
     1    1   11 ar
     2    1    2 ar
     3    1   25 1
     4    2    3 ar
     5    2   26 1
     6    3    9 ar
     7    3    4 1
     8    4    5 2
     9    4   21 1
    10    5    6 1
    11    6    7 am
    12    6   12 1
    13    7    8 2
    14    7    9 1
    15    9   10 ar
    16   10   11 ar
    17   11   27 1
    18   12   13 1
    19   12   28 1
    20   12   29 1
    21   13   18 ar
    22   13   14 ar
    23   14   15 ar
    24   14   30 1
    25   15   16 ar
    26   15   31 1
    27   16   17 ar
    28   16   20 1
    29   17   18 ar
    30   17   32 1
    31   18   19 1
    32   21   22 1
    33   21   33 1
    34   21   34 1
    35   22   23 2
    36   22   24 1
@<TRIPOS>MOLECULE
CHEMBL69956
   39    42     0     0     0
SMALL
USER_CHARGES

@<TRIPOS>ATOM
      1 C1         -0.0168    1.3860    0.0097 C.ar      1 <0>        -0.1460
      2 C2          1.1628    2.0841    0.0021 C.ar      1 <0>        -0.0537
      3 C3          2.3582    1.3546   -0.0132 C.ar      1 <0>        -0.0925
      4 C4          3.6647    2.0089   -0.0216 C.2       1 <0>         0.1271
      5 N1          4.7504    1.2934   -0.0359 N.2       1 <0>        -0.1138
      6 N2          4.7306   -0.1016   -0.0433 N.am      1 <0>        -0.4386
      7 C5          3.5745   -0.7964   -0.0364 C.2       1 <0>         0.5280
      8 O1          3.5830   -2.0143   -0.0431 O.2       1 <0>        -0.5090
      9 C6          2.3023   -0.0561   -0.0203 C.ar      1 <0>         0.0797
     10 N3          1.1308   -0.6781   -0.0132 N.ar      1 <0>        -0.4261
     11 C7          0.0021   -0.0041    0.0020 C.ar      1 <0>         0.1013
     12 C8          6.0005   -0.8319   -0.0595 C.3       1 <0>         0.2215
     13 C9          6.4223   -1.0746   -1.4857 C.2       1 <0>         0.0934
     14 N4          7.1624   -0.3144   -2.2389 N.2       1 <0>        -0.4696
     15 C10         7.4724   -0.6449   -3.5094 C.ar      1 <0>         0.0845
     16 C11         8.2507    0.0474   -4.4606 C.ar      1 <0>         0.0001
     17 C12         8.4420   -0.4682   -5.7058 C.ar      1 <0>        -0.1752
     18 C13         7.8848   -1.6820   -6.0839 C.ar      1 <0>        -0.0642
     19 C14         7.1162   -2.3899   -5.1790 C.ar      1 <0>        -0.0581
     20 C15         6.9172   -1.8781   -3.9198 C.ar      1 <0>        -0.1589
     21 S1          6.0485   -2.3938   -2.4618 S.3       1 <0>         0.1275
     22 C16         9.2787    0.2976   -6.6981 C.3       1 <0>         0.5122
     23 F1         10.6168   -0.0931   -6.5795 F         1 <0>        -0.1748
     24 F2          8.8275    0.0283   -7.9946 F         1 <0>        -0.1758
     25 F3          9.1686    1.6684   -6.4413 F         1 <0>        -0.1718
     26 C17         3.7540    3.5133   -0.0143 C.3       1 <0>        -0.1341
     27 C18         5.2020    3.9306   -0.0253 C.2       1 <0>         0.4885
     28 O2          6.0801    3.0849   -0.0380 O.co2     1 <0>        -0.6460
     29 O3          5.4953    5.1140   -0.0216 O.co2     1 <0>        -0.7034
     30 H1         -0.9585    1.9145    0.0260 H         1 <0>         0.1458
     31 H2          1.1702    3.1641    0.0075 H         1 <0>         0.1534
     32 H3         -0.9335   -0.5436    0.0081 H         1 <0>         0.1659
     33 H4          6.7640   -0.2443    0.4503 H         1 <0>         0.1390
     34 H5          5.8767   -1.7873    0.4504 H         1 <0>         0.1247
     35 H6          8.6984    0.9947   -4.1988 H         1 <0>         0.1504
     36 H7          8.0502   -2.0703   -7.0780 H         1 <0>         0.1492
     37 H8          6.6766   -3.3358   -5.4591 H         1 <0>         0.1451
     38 H9          3.2544    3.9112   -0.8976 H         1 <0>         0.0864
     39 H10         3.2707    3.9015    0.8823 H         1 <0>         0.0879
@<TRIPOS>BOND
     1    1   11 ar
     2    1    2 ar
     3    1   30 1
     4    2    3 ar
     5    2   31 1
     6    3    9 ar
     7    3    4 1
     8    4    5 2
     9    4   26 1
    10    5    6 1
    11    6    7 am
    12    6   12 1
    13    7    8 2
    14    7    9 1
    15    9   10 ar
    16   10   11 ar
    17   11   32 1
    18   12   13 1
    19   12   33 1
    20   12   34 1
    21   13   21 1
    22   13   14 2
    23   14   15 1
    24   15   20 ar
    25   15   16 ar
    26   16   17 ar
    27   16   35 1
    28   17   18 ar
    29   17   22 1
    30   18   19 ar
    31   18   36 1
    32   19   20 ar
    33   19   37 1
    34   20   21 1
    35   22   23 1
    36   22   24 1
    37   22   25 1
    38   26   27 1
    39   26   38 1
    40   26   39 1
    41   27   28 2
    42   27   29 1
@<TRIPOS>MOLECULE
CHEMBL81536
   26    28     0     0     0
SMALL
USER_CHARGES

@<TRIPOS>ATOM
      1 C1         -0.0166    1.3744    0.0096 C.ar      1 <0>        -0.0659
      2 C2          1.1675    2.1080    0.0022 C.ar      1 <0>        -0.0886
      3 C3          2.3721    1.4300   -0.0036 C.ar      1 <0>        -0.0411
      4 C4          2.3896    0.0352   -0.0225 C.ar      1 <0>        -0.0798
      5 C5          1.2110   -0.6807   -0.0189 C.ar      1 <0>         0.0004
      6 C6          0.0021   -0.0041    0.0020 C.ar      1 <0>        -0.0325
      7 Cl1        -1.4894   -0.8923    0.0180 Cl        1 <0>        -0.0326
      8 Cl2         1.2417   -2.4163   -0.0392 Cl        1 <0>        -0.0267
      9 S1          3.9211    2.2756    0.0332 S.3       1 <0>        -0.0710
     10 C7          3.4678    3.9994   -0.3202 C.3       1 <0>        -0.1096
     11 C8          2.2430    4.3332    0.5442 C.3       1 <0>        -0.1222
     12 C9          1.0324    3.6024   -0.0111 C.3       1 <0>         0.1664
     13 C10        -0.2109    4.0077    0.7554 C.2       1 <0>         0.5366
     14 O1         -0.4338    3.8330    1.9342 O.2       1 <0>        -0.4408
     15 N1         -1.0171    4.6028   -0.1458 N.am      1 <0>        -0.6785
     16 C11        -0.4612    4.6308   -1.3626 C.2       1 <0>         0.7067
     17 O2         -0.9974    5.1162   -2.3394 O.2       1 <0>        -0.5276
     18 N2          0.7572    4.0612   -1.3840 N.am      1 <0>        -0.7160
     19 H1         -0.9636    1.8933    0.0260 H         1 <0>         0.1368
     20 H2          3.3340   -0.4884   -0.0405 H         1 <0>         0.1567
     21 H3          4.2950    4.6610   -0.0630 H         1 <0>         0.1333
     22 H4          3.2181    4.1087   -1.3755 H         1 <0>         0.0987
     23 H5          2.4228    4.0135    1.5707 H         1 <0>         0.1116
     24 H6          2.0624    5.4079    0.5216 H         1 <0>         0.1043
     25 H7         -1.8925    4.9654    0.0618 H         1 <0>         0.4390
     26 H8          1.3410    3.9703   -2.1533 H         1 <0>         0.4424
@<TRIPOS>BOND
     1    1    6 ar
     2    1    2 ar
     3    1   19 1
     4    2   12 1
     5    2    3 ar
     6    3    4 ar
     7    3    9 1
     8    4    5 ar
     9    4   20 1
    10    5    6 ar
    11    5    8 1
    12    6    7 1
    13    9   10 1
    14   10   11 1
    15   10   21 1
    16   10   22 1
    17   11   12 1
    18   11   23 1
    19   11   24 1
    20   12   18 1
    21   12   13 1
    22   13   14 2
    23   13   15 am
    24   15   16 am
    25   15   25 1
    26   16   17 2
    27   16   18 am
    28   18   26 1
@<TRIPOS>MOLECULE
CHEMBL81536__1
   26    28     0     0     0
SMALL
USER_CHARGES

@<TRIPOS>ATOM
      1 C1         -0.0166    1.3746    0.0096 C.ar      1 <0>        -0.0666
      2 C2          1.1677    2.1081    0.0022 C.ar      1 <0>        -0.0969
      3 C3          2.3720    1.4293   -0.0047 C.ar      1 <0>        -0.0364
      4 C4          2.3891    0.0344   -0.0221 C.ar      1 <0>        -0.0816
      5 C5          1.2104   -0.6814   -0.0172 C.ar      1 <0>         0.0003
      6 C6          0.0021   -0.0041    0.0020 C.ar      1 <0>        -0.0370
      7 Cl1        -1.4897   -0.8918    0.0175 Cl        1 <0>        -0.0343
      8 Cl2         1.2404   -2.4171   -0.0359 Cl        1 <0>        -0.0280
      9 S1          3.9213    2.2745    0.0261 S.3       1 <0>        -0.0707
     10 C7          3.4673    3.9973   -0.3316 C.3       1 <0>        -0.1272
     11 C8          2.2461    4.3345    0.5364 C.3       1 <0>        -0.1198
     12 C9          1.0329    3.6025   -0.0118 C.3       1 <0>         0.1694
     13 C10         0.7459    4.0715   -1.4249 C.2       1 <0>         0.5340
     14 O1          1.4642    3.9563   -2.3947 O.2       1 <0>        -0.4441
     15 N1         -0.4736    4.6425   -1.3789 N.am      1 <0>        -0.6754
     16 C11        -0.9913    4.6020   -0.1458 C.2       1 <0>         0.7049
     17 O2         -2.0800    5.0571    0.1452 O.2       1 <0>        -0.5258
     18 N2         -0.1722    4.0009    0.7358 N.am      1 <0>        -0.7142
     19 H1         -0.9636    1.8935    0.0260 H         1 <0>         0.1439
     20 H2          3.3335   -0.4893   -0.0392 H         1 <0>         0.1562
     21 H3          4.2958    4.6594   -0.0799 H         1 <0>         0.1315
     22 H4          3.2136    4.1030   -1.3863 H         1 <0>         0.1207
     23 H5          2.4298    4.0182    1.5632 H         1 <0>         0.1082
     24 H6          2.0659    5.4092    0.5108 H         1 <0>         0.1035
     25 H7         -0.9210    5.0345   -2.1450 H         1 <0>         0.4388
     26 H8         -0.3422    3.8572    1.6799 H         1 <0>         0.4468
@<TRIPOS>BOND
     1    1    6 ar
     2    1    2 ar
     3    1   19 1
     4    2   12 1
     5    2    3 ar
     6    3    4 ar
     7    3    9 1
     8    4    5 ar
     9    4   20 1
    10    5    6 ar
    11    5    8 1
    12    6    7 1
    13    9   10 1
    14   10   11 1
    15   10   21 1
    16   10   22 1
    17   11   12 1
    18   11   23 1
    19   11   24 1
    20   12   18 1
    21   12   13 1
    22   13   14 2
    23   13   15 am
    24   15   16 am
    25   15   25 1
    26   16   17 2
    27   16   18 am
    28   18   26 1
@<TRIPOS>MOLECULE
CHEMBL8381
   25    27     0     0     0
SMALL
USER_CHARGES

@<TRIPOS>ATOM
      1 C1         -0.0168    1.3899    0.0097 C.ar      1 <0>        -0.1310
      2 C2          1.1197    2.1542    0.0029 C.ar      1 <0>        -0.0731
      3 C3          2.3699    1.5132   -0.0121 C.ar      1 <0>        -0.0252
      4 C4          3.6210    2.1528   -0.0190 C.ar      1 <0>        -0.1398
      5 C5          4.7495    1.3795   -0.0333 C.ar      1 <0>        -0.0774
      6 C6          4.7211   -0.0150   -0.0419 C.ar      1 <0>        -0.1314
      7 C7          3.5102   -0.6815   -0.0352 C.ar      1 <0>         0.1875
      8 C8          2.3713    0.1179   -0.0200 C.ar      1 <0>        -0.1161
      9 C9          1.2134   -0.6736   -0.0140 C.ar      1 <0>        -0.1393
     10 C10         0.0021   -0.0041    0.0020 C.ar      1 <0>        -0.0282
     11 C11         1.7183   -2.0517   -0.0255 C.2       1 <0>         0.5733
     12 O1          1.0400   -3.0619   -0.0245 O.2       1 <0>        -0.4963
     13 N1          3.0766   -2.0013   -0.0391 N.am      1 <0>        -0.5145
     14 C12         3.9575   -3.1717   -0.0550 C.3       1 <0>         0.0429
     15 C13         4.2735   -3.5819    1.3603 C.2       1 <0>         0.4835
     16 O2          3.8061   -2.9546    2.2955 O.co2     1 <0>        -0.6784
     17 O3          4.9964   -4.5409    1.5701 O.co2     1 <0>        -0.6922
     18 H1         -0.9734    1.8910    0.0262 H         1 <0>         0.1286
     19 H2          1.0560    3.2323    0.0087 H         1 <0>         0.1343
     20 H3          3.6902    3.2306   -0.0135 H         1 <0>         0.1301
     21 H4          5.7100    1.8733   -0.0386 H         1 <0>         0.1258
     22 H5          5.6452   -0.5739   -0.0540 H         1 <0>         0.1282
     23 H6         -0.9244   -0.5591    0.0082 H         1 <0>         0.1335
     24 H7          3.4599   -3.9940   -0.5691 H         1 <0>         0.0900
     25 H8          4.8820   -2.9236   -0.5764 H         1 <0>         0.0850
@<TRIPOS>BOND
     1    1   10 ar
     2    1    2 ar
     3    1   18 1
     4    2    3 ar
     5    2   19 1
     6    3    8 ar
     7    3    4 ar
     8    4    5 ar
     9    4   20 1
    10    5    6 ar
    11    5   21 1
    12    6    7 ar
    13    6   22 1
    14    7   13 1
    15    7    8 ar
    16    8    9 ar
    17    9   10 ar
    18    9   11 1
    19   10   23 1
    20   11   12 2
    21   11   13 am
    22   13   14 1
    23   14   15 1
    24   14   24 1
    25   14   25 1
    26   15   16 2
    27   15   17 1
@<TRIPOS>MOLECULE
CHEMBL138065
   47    49     0     0     0
SMALL
USER_CHARGES

@<TRIPOS>ATOM
      1 C1          0.1401    1.2214    0.6269 C.3       1 <0>         0.0261
      2 O1         -0.0284   -0.1104    1.1169 O.3       1 <0>        -0.3159
      3 C2         -1.2155   -0.7158    0.8600 C.ar      1 <0>         0.1448
      4 C3         -2.1973   -0.0406    0.1439 C.ar      1 <0>        -0.2219
      5 C4         -3.4030   -0.6511   -0.1189 C.ar      1 <0>        -0.0293
      6 C5         -3.6390   -1.9521    0.3351 C.ar      1 <0>        -0.1779
      7 C6         -2.6489   -2.6276    1.0545 C.ar      1 <0>        -0.0379
      8 C7         -1.4441   -2.0116    1.3088 C.ar      1 <0>        -0.1622
      9 C8         -4.9301   -2.6102    0.0562 C.2       1 <0>         0.4757
     10 O2         -5.9383   -1.9419   -0.0720 O.2       1 <0>        -0.4798
     11 C9         -4.9978   -4.0770   -0.0671 C.2       1 <0>        -0.2671
     12 C10        -3.9032   -4.9699   -0.0811 C.2       1 <0>        -0.1240
     13 C11        -4.4163   -6.2285   -0.2108 C.2       1 <0>        -0.0479
     14 N1         -5.7895   -6.1317   -0.2765 N.pl3     1 <0>        -0.3595
     15 C12        -6.1465   -4.8406   -0.1850 C.2       1 <0>         0.0977
     16 C13        -6.7137   -7.2595   -0.4180 C.3       1 <0>         0.0136
     17 C14        -7.0102   -7.8396    0.9408 C.2       1 <0>         0.4843
     18 O3         -6.4971   -7.3558    1.9354 O.co2     1 <0>        -0.6600
     19 O4         -7.7632   -8.7928    1.0457 O.co2     1 <0>        -0.6861
     20 C15        -3.6390   -7.4711   -0.2706 C.2       1 <0>         0.4668
     21 O5         -3.4425   -8.1156    0.7433 O.2       1 <0>        -0.4148
     22 C16        -3.0948   -7.9401   -1.5605 C.ar      1 <0>        -0.1914
     23 C17        -3.4073   -7.2607   -2.7414 C.ar      1 <0>        -0.0224
     24 C18        -2.8974   -7.7011   -3.9422 C.ar      1 <0>        -0.1644
     25 C19        -2.0733   -8.8199   -3.9811 C.ar      1 <0>         0.1536
     26 C20        -1.7604   -9.4986   -2.8090 C.ar      1 <0>        -0.2225
     27 C21        -2.2611   -9.0611   -1.6033 C.ar      1 <0>        -0.0192
     28 O6         -1.5731   -9.2510   -5.1668 O.3       1 <0>        -0.3146
     29 C22        -0.7330  -10.4066   -5.1348 C.3       1 <0>         0.0249
     30 H1          1.1301    1.5865    0.9002 H         1 <0>         0.0992
     31 H2          0.0383    1.2249   -0.4583 H         1 <0>         0.0565
     32 H3         -0.6197    1.8686    1.0652 H         1 <0>         0.0564
     33 H4         -2.0141    0.9645   -0.2065 H         1 <0>         0.1304
     34 H5         -4.1654   -0.1256   -0.6747 H         1 <0>         0.1325
     35 H6         -2.8273   -3.6328    1.4070 H         1 <0>         0.1488
     36 H7         -0.6771   -2.5343    1.8609 H         1 <0>         0.1355
     37 H8         -2.8586   -4.7068   -0.0041 H         1 <0>         0.1471
     38 H9         -7.1578   -4.4620   -0.2033 H         1 <0>         0.1730
     39 H10        -7.6407   -6.9143   -0.8759 H         1 <0>         0.0984
     40 H11        -6.2599   -8.0242   -1.0484 H         1 <0>         0.0887
     41 H12        -4.0481   -6.3919   -2.7121 H         1 <0>         0.1404
     42 H13        -3.1384   -7.1768   -4.8551 H         1 <0>         0.1366
     43 H14        -1.1200  -10.3676   -2.8435 H         1 <0>         0.1338
     44 H15        -2.0137   -9.5861   -0.6925 H         1 <0>         0.1380
     45 H16        -0.4022  -10.6433   -6.1461 H         1 <0>         0.1004
     46 H17         0.1347  -10.2077   -4.5059 H         1 <0>         0.0577
     47 H18        -1.2909  -11.2501   -4.7282 H         1 <0>         0.0581
@<TRIPOS>BOND
     1    1    2 1
     2    1   30 1
     3    1   31 1
     4    1   32 1
     5    2    3 1
     6    3    8 ar
     7    3    4 ar
     8    4    5 ar
     9    4   33 1
    10    5    6 ar
    11    5   34 1
    12    6    7 ar
    13    6    9 1
    14    7    8 ar
    15    7   35 1
    16    8   36 1
    17    9   10 2
    18    9   11 1
    19   11   15 2
    20   11   12 1
    21   12   13 2
    22   12   37 1
    23   13   14 1
    24   13   20 1
    25   14   15 1
    26   14   16 1
    27   15   38 1
    28   16   17 1
    29   16   39 1
    30   16   40 1
    31   17   18 2
    32   17   19 1
    33   20   21 2
    34   20   22 1
    35   22   27 ar
    36   22   23 ar
    37   23   24 ar
    38   23   41 1
    39   24   25 ar
    40   24   42 1
    41   25   26 ar
    42   25   28 1
    43   26   27 ar
    44   26   43 1
    45   27   44 1
    46   28   29 1
    47   29   45 1
    48   29   46 1
    49   29   47 1
@<TRIPOS>MOLECULE
CHEMBL419474
   32    35     0     0     0
SMALL
USER_CHARGES

@<TRIPOS>ATOM
      1 C1         -0.0164    1.3571    0.0095 C.ar      1 <0>        -0.0891
      2 C2          1.1686    2.0906    0.0021 C.ar      1 <0>        -0.1195
      3 C3          2.3787    1.4673   -0.0123 C.ar      1 <0>        -0.0781
      4 C4          2.4372    0.0639   -0.0198 C.ar      1 <0>        -0.0645
      5 C5          1.2336   -0.6809   -0.0116 C.ar      1 <0>        -0.0062
      6 C6          0.0021   -0.0041    0.0020 C.ar      1 <0>        -0.1147
      7 C7          1.2961   -2.0854   -0.0173 C.ar      1 <0>        -0.0515
      8 C8          2.5073   -2.7046   -0.0281 C.ar      1 <0>        -0.0549
      9 C9          3.7002   -1.9769   -0.0373 C.ar      1 <0>        -0.1834
     10 C10         3.6780   -0.6123   -0.0371 C.ar      1 <0>         0.1943
     11 O1          4.8173    0.1253   -0.0598 O.3       1 <0>        -0.3000
     12 C11         6.0397   -0.5091    0.3172 C.3       1 <0>         0.0655
     13 C12         6.1561   -1.8282   -0.4597 C.3       1 <0>        -0.1595
     14 C13         5.0014   -2.7323   -0.0423 C.3       1 <0>         0.1741
     15 C14         4.9085   -3.9274   -0.9630 C.2       1 <0>         0.5396
     16 O2          4.7058   -3.9188   -2.1583 O.2       1 <0>        -0.4445
     17 N1          5.0986   -5.0055   -0.1747 N.am      1 <0>        -0.6801
     18 C15         5.2968   -4.6537    1.1019 C.2       1 <0>         0.7062
     19 O3          5.4901   -5.4493    2.0001 O.2       1 <0>        -0.5316
     20 N2          5.2579   -3.3188    1.2790 N.am      1 <0>        -0.7145
     21 Cl1        -0.1642   -3.0241   -0.0101 Cl        1 <0>        -0.0522
     22 H1         -0.9633    1.8763    0.0259 H         1 <0>         0.1316
     23 H2          1.1262    3.1698    0.0076 H         1 <0>         0.1316
     24 H3          3.2889    2.0486   -0.0182 H         1 <0>         0.1399
     25 H4         -0.9237   -0.5602    0.0069 H         1 <0>         0.1380
     26 H5          2.5478   -3.7839   -0.0292 H         1 <0>         0.1279
     27 H6          6.8812    0.1383    0.0703 H         1 <0>         0.1279
     28 H7          6.0334   -0.7125    1.3880 H         1 <0>         0.0737
     29 H8          6.0992   -1.6305   -1.5301 H         1 <0>         0.1090
     30 H9          7.1046   -2.3108   -0.2244 H         1 <0>         0.1061
     31 H10         5.0928   -5.9217   -0.4932 H         1 <0>         0.4371
     32 H11         5.3759   -2.8399    2.1142 H         1 <0>         0.4417
@<TRIPOS>BOND
     1    1    6 ar
     2    1    2 ar
     3    1   22 1
     4    2    3 ar
     5    2   23 1
     6    3    4 ar
     7    3   24 1
     8    4   10 ar
     9    4    5 ar
    10    5    6 ar
    11    5    7 ar
    12    6   25 1
    13    7    8 ar
    14    7   21 1
    15    8    9 ar
    16    8   26 1
    17    9   14 1
    18    9   10 ar
    19   10   11 1
    20   11   12 1
    21   12   13 1
    22   12   27 1
    23   12   28 1
    24   13   14 1
    25   13   29 1
    26   13   30 1
    27   14   20 1
    28   14   15 1
    29   15   16 2
    30   15   17 am
    31   17   18 am
    32   17   31 1
    33   18   19 2
    34   18   20 am
    35   20   32 1
@<TRIPOS>MOLECULE
CHEMBL419474__1
   31    34     0     0     0
SMALL
USER_CHARGES

@<TRIPOS>ATOM
      1 C1         -0.0164    1.3570    0.0095 C.ar      1 <0>        -0.1051
      2 C2          1.1686    2.0904    0.0021 C.ar      1 <0>        -0.1324
      3 C3          2.3788    1.4671   -0.0141 C.ar      1 <0>        -0.0779
      4 C4          2.4368    0.0636   -0.0223 C.ar      1 <0>        -0.0616
      5 C5          1.2333   -0.6813   -0.0116 C.ar      1 <0>        -0.0123
      6 C6          0.0021   -0.0041    0.0020 C.ar      1 <0>        -0.1121
      7 C7          1.2958   -2.0857   -0.0118 C.ar      1 <0>        -0.0664
      8 C8          2.5070   -2.7049   -0.0169 C.ar      1 <0>        -0.0305
      9 C9          3.6997   -1.9774   -0.0305 C.ar      1 <0>        -0.1321
     10 C10         3.6776   -0.6126   -0.0427 C.ar      1 <0>         0.1599
     11 O1          4.8161    0.1248   -0.0856 O.3       1 <0>        -0.3087
     12 C11         6.0458   -0.5030    0.2772 C.3       1 <0>         0.0649
     13 C12         6.1494   -1.8350   -0.4794 C.3       1 <0>        -0.1452
     14 C13         5.0018   -2.7305   -0.0255 C.3       1 <0>         0.1384
     15 C14         4.9061   -3.9569   -0.9018 C.2       1 <0>         0.4706
     16 O2          4.6682   -3.9897   -2.2230 O.3       1 <0>        -0.6315
     17 N1          5.1025   -4.9797   -0.1122 N.2       1 <0>        -0.6718
     18 C15         5.3143   -4.6129    1.1587 C.2       1 <0>         0.6609
     19 O3          5.5206   -5.3959    2.0672 O.2       1 <0>        -0.5901
     20 N2          5.2728   -3.2736    1.3127 N.am      1 <0>        -0.7640
     21 Cl1        -0.1645   -3.0245   -0.0051 Cl        1 <0>        -0.0673
     22 H1         -0.9633    1.8762    0.0259 H         1 <0>         0.1233
     23 H2          1.1262    3.1695    0.0090 H         1 <0>         0.1232
     24 H3          3.2890    2.0483   -0.0210 H         1 <0>         0.1340
     25 H4         -0.9238   -0.5600    0.0061 H         1 <0>         0.1323
     26 H5          2.5476   -3.7842   -0.0099 H         1 <0>         0.1358
     27 H6          6.8817    0.1408    0.0036 H         1 <0>         0.1130
     28 H7          6.0606   -0.6885    1.3512 H         1 <0>         0.0640
     29 H8          6.0738   -1.6557   -1.5519 H         1 <0>         0.0956
     30 H9          7.1018   -2.3140   -0.2522 H         1 <0>         0.0904
     31 H10         5.3966   -2.7736    2.1346 H         1 <0>         0.4026
@<TRIPOS>BOND
     1    1    6 ar
     2    1    2 ar
     3    1   22 1
     4    2    3 ar
     5    2   23 1
     6    3    4 ar
     7    3   24 1
     8    4   10 ar
     9    4    5 ar
    10    5    6 ar
    11    5    7 ar
    12    6   25 1
    13    7    8 ar
    14    7   21 1
    15    8    9 ar
    16    8   26 1
    17    9   14 1
    18    9   10 ar
    19   10   11 1
    20   11   12 1
    21   12   13 1
    22   12   27 1
    23   12   28 1
    24   13   14 1
    25   13   29 1
    26   13   30 1
    27   14   20 1
    28   14   15 1
    29   15   16 1
    30   15   17 2
    31   17   18 1
    32   18   19 2
    33   18   20 am
    34   20   31 1
@<TRIPOS>MOLECULE
CHEMBL419474__2
   32    35     0     0     0
SMALL
USER_CHARGES

@<TRIPOS>ATOM
      1 C1         -0.0164    1.3570    0.0095 C.ar      1 <0>        -0.0889
      2 C2          1.1687    2.0903    0.0021 C.ar      1 <0>        -0.1204
      3 C3          2.3789    1.4670   -0.0131 C.ar      1 <0>        -0.0771
      4 C4          2.4369    0.0635   -0.0218 C.ar      1 <0>        -0.0656
      5 C5          1.2333   -0.6813   -0.0133 C.ar      1 <0>        -0.0061
      6 C6          0.0021   -0.0041    0.0020 C.ar      1 <0>        -0.1157
      7 C7          1.2957   -2.0857   -0.0203 C.ar      1 <0>        -0.0552
      8 C8          2.5068   -2.7049   -0.0340 C.ar      1 <0>        -0.0539
      9 C9          3.6997   -1.9775   -0.0435 C.ar      1 <0>        -0.1915
     10 C10         3.6776   -0.6128   -0.0406 C.ar      1 <0>         0.1988
     11 O1          4.8166    0.1249   -0.0619 O.3       1 <0>        -0.2999
     12 C11         6.0411   -0.5110    0.3058 C.3       1 <0>         0.0571
     13 C12         6.1526   -1.8272   -0.4768 C.3       1 <0>        -0.1551
     14 C13         5.0009   -2.7329   -0.0533 C.3       1 <0>         0.1764
     15 C14         5.2718   -3.3300    1.3082 C.2       1 <0>         0.5367
     16 O2          5.4214   -2.7352    2.3539 O.2       1 <0>        -0.4493
     17 N1          5.3116   -4.6647    1.1146 N.am      1 <0>        -0.6783
     18 C15         5.1044   -4.9831   -0.1690 C.2       1 <0>         0.7049
     19 O3          5.0939   -6.1234   -0.5894 O.2       1 <0>        -0.5304
     20 N2          4.9092   -3.8979   -0.9424 N.am      1 <0>        -0.7111
     21 Cl1        -0.1646   -3.0245   -0.0111 Cl        1 <0>        -0.0533
     22 H1         -0.9632    1.8762    0.0259 H         1 <0>         0.1314
     23 H2          1.1264    3.1694    0.0082 H         1 <0>         0.1314
     24 H3          3.2891    2.0482   -0.0187 H         1 <0>         0.1401
     25 H4         -0.9238   -0.5600    0.0081 H         1 <0>         0.1376
     26 H5          2.5472   -3.7842   -0.0372 H         1 <0>         0.1323
     27 H6          6.8813    0.1371    0.0567 H         1 <0>         0.1275
     28 H7          6.0407   -0.7185    1.3759 H         1 <0>         0.0879
     29 H8          6.0882   -1.6257   -1.5460 H         1 <0>         0.1060
     30 H9          7.1029   -2.3105   -0.2498 H         1 <0>         0.1016
     31 H10         5.4709   -5.3131    1.8183 H         1 <0>         0.4369
     32 H11         4.7414   -3.8879   -1.8978 H         1 <0>         0.4453
@<TRIPOS>BOND
     1    1    6 ar
     2    1    2 ar
     3    1   22 1
     4    2    3 ar
     5    2   23 1
     6    3    4 ar
     7    3   24 1
     8    4   10 ar
     9    4    5 ar
    10    5    6 ar
    11    5    7 ar
    12    6   25 1
    13    7    8 ar
    14    7   21 1
    15    8    9 ar
    16    8   26 1
    17    9   14 1
    18    9   10 ar
    19   10   11 1
    20   11   12 1
    21   12   13 1
    22   12   27 1
    23   12   28 1
    24   13   14 1
    25   13   29 1
    26   13   30 1
    27   14   20 1
    28   14   15 1
    29   15   16 2
    30   15   17 am
    31   17   18 am
    32   17   31 1
    33   18   19 2
    34   18   20 am
    35   20   32 1
@<TRIPOS>MOLECULE
CHEMBL419474__3
   31    34     0     0     0
SMALL
USER_CHARGES

@<TRIPOS>ATOM
      1 C1         -0.0164    1.3570    0.0095 C.ar      1 <0>        -0.1051
      2 C2          1.1687    2.0903    0.0021 C.ar      1 <0>        -0.1329
      3 C3          2.3789    1.4669   -0.0129 C.ar      1 <0>        -0.0762
      4 C4          2.4369    0.0635   -0.0211 C.ar      1 <0>        -0.0611
      5 C5          1.2333   -0.6813   -0.0134 C.ar      1 <0>        -0.0139
      6 C6          0.0021   -0.0041    0.0020 C.ar      1 <0>        -0.1132
      7 C7          1.2957   -2.0857   -0.0213 C.ar      1 <0>        -0.0683
      8 C8          2.5068   -2.7050   -0.0345 C.ar      1 <0>        -0.0373
      9 C9          3.6998   -1.9777   -0.0419 C.ar      1 <0>        -0.1393
     10 C10         3.6776   -0.6129   -0.0384 C.ar      1 <0>         0.1700
     11 O1          4.8168    0.1247   -0.0577 O.3       1 <0>        -0.3103
     12 C11         6.0404   -0.5113    0.3125 C.3       1 <0>         0.0577
     13 C12         6.1539   -1.8271   -0.4705 C.3       1 <0>        -0.1388
     14 C13         5.0009   -2.7326   -0.0505 C.3       1 <0>         0.1397
     15 C14         5.2686   -3.3363    1.3082 C.2       1 <0>         0.4691
     16 O2          5.4326   -2.6780    2.4671 O.3       1 <0>        -0.6335
     17 N1          5.3085   -4.6297    1.1257 N.2       1 <0>        -0.6698
     18 C15         5.1068   -4.9734   -0.1534 C.2       1 <0>         0.6597
     19 O3          5.1003   -6.1218   -0.5561 O.2       1 <0>        -0.5888
     20 N2          4.9111   -3.8970   -0.9420 N.am      1 <0>        -0.7620
     21 Cl1        -0.1646   -3.0244   -0.0138 Cl        1 <0>        -0.0697
     22 H1         -0.9632    1.8763    0.0259 H         1 <0>         0.1230
     23 H2          1.1264    3.1694    0.0080 H         1 <0>         0.1233
     24 H3          3.2891    2.0481   -0.0187 H         1 <0>         0.1349
     25 H4         -0.9238   -0.5600    0.0083 H         1 <0>         0.1316
     26 H5          2.5471   -3.7842   -0.0390 H         1 <0>         0.1333
     27 H6          6.8812    0.1370    0.0657 H         1 <0>         0.1102
     28 H7          6.0376   -0.7193    1.3825 H         1 <0>         0.0967
     29 H8          6.0924   -1.6251   -1.5399 H         1 <0>         0.0767
     30 H9          7.1034   -2.3108   -0.2412 H         1 <0>         0.0883
     31 H10         4.7451   -3.8925   -1.8977 H         1 <0>         0.4060
@<TRIPOS>BOND
     1    1    6 ar
     2    1    2 ar
     3    1   22 1
     4    2    3 ar
     5    2   23 1
     6    3    4 ar
     7    3   24 1
     8    4   10 ar
     9    4    5 ar
    10    5    6 ar
    11    5    7 ar
    12    6   25 1
    13    7    8 ar
    14    7   21 1
    15    8    9 ar
    16    8   26 1
    17    9   14 1
    18    9   10 ar
    19   10   11 1
    20   11   12 1
    21   12   13 1
    22   12   27 1
    23   12   28 1
    24   13   14 1
    25   13   29 1
    26   13   30 1
    27   14   20 1
    28   14   15 1
    29   15   16 1
    30   15   17 2
    31   17   18 1
    32   18   19 2
    33   18   20 am
    34   20   31 1
@<TRIPOS>MOLECULE
CHEMBL19187
   39    41     0     0     0
SMALL
USER_CHARGES

@<TRIPOS>ATOM
      1 C1          5.1592   -0.3077    8.0305 C.ar      1 <0>        -0.1094
      2 C2          6.4076   -0.5522    7.4898 C.ar      1 <0>        -0.1213
      3 C3          6.5765   -0.5634    6.1178 C.ar      1 <0>        -0.1033
      4 C4          5.4969   -0.3305    5.2866 C.ar      1 <0>        -0.1064
      5 C5          4.2482   -0.0868    5.8273 C.ar      1 <0>        -0.0988
      6 C6          4.0796   -0.0743    7.1993 C.ar      1 <0>        -0.1202
      7 C7          5.6812   -0.3417    3.7910 C.3       1 <0>         0.1525
      8 N1          5.4671   -1.6989    3.2827 N.pl3     1 <0>        -1.1102
      9 S1          5.2018   -1.9457    1.6668 S.o2      1 <0>         2.6802
     10 O1          5.0626   -3.3485    1.4877 O.2       1 <0>        -0.9182
     11 O2          4.1937   -1.0240    1.2753 O.2       1 <0>        -0.9493
     12 C8          6.6726   -1.4733    0.8194 C.ar      1 <0>        -0.6493
     13 C9          7.8453   -1.2796    1.5258 C.ar      1 <0>        -0.0173
     14 C10         8.9991   -0.9086    0.8617 C.ar      1 <0>        -0.1131
     15 C11         8.9807   -0.7315   -0.5105 C.ar      1 <0>         0.0161
     16 C12         7.8073   -0.9260   -1.2168 C.ar      1 <0>        -0.1061
     17 C13         6.6550   -1.3021   -0.5521 C.ar      1 <0>         0.0092
     18 C14         5.3779   -1.5194   -1.3221 C.3       1 <0>         0.0887
     19 C15         5.3015   -2.9430   -1.8372 C.2       1 <0>         0.5202
     20 O3          5.2823   -3.9602   -1.1780 O.2       1 <0>        -0.4190
     21 N2          5.2586   -2.8425   -3.1805 N.am      1 <0>        -0.6753
     22 C16         5.2968   -1.5667   -3.5814 C.2       1 <0>         0.7056
     23 O4          5.2697   -1.2237   -4.7471 O.2       1 <0>        -0.5288
     24 N3          5.3683   -0.7058   -2.5501 N.am      1 <0>        -0.7115
     25 Cl1        10.4295   -0.2650   -1.3453 Cl        1 <0>        -0.0406
     26 H1          5.0263   -0.3034    9.1023 H         1 <0>         0.1245
     27 H2          7.2512   -0.7342    8.1392 H         1 <0>         0.1253
     28 H3          7.5521   -0.7538    5.6954 H         1 <0>         0.1249
     29 H4          3.4048    0.0955    5.1779 H         1 <0>         0.1272
     30 H5          3.1041    0.1165    7.6217 H         1 <0>         0.1260
     31 H6          4.9620    0.3361    3.3312 H         1 <0>         0.0945
     32 H7          6.6930   -0.0178    3.5472 H         1 <0>         0.0766
     33 H8          5.4807   -2.4530    3.8927 H         1 <0>         0.4259
     34 H9          7.8595   -1.4178    2.5968 H         1 <0>         0.1530
     35 H10         9.9148   -0.7566    1.4137 H         1 <0>         0.1514
     36 H11         7.7923   -0.7878   -2.2878 H         1 <0>         0.1478
     37 H12         4.5128   -1.2868   -0.7011 H         1 <0>         0.1603
     38 H13         5.2068   -3.6015   -3.7823 H         1 <0>         0.4401
     39 H14         5.4058    0.2619   -2.6045 H         1 <0>         0.4480
@<TRIPOS>BOND
     1    1    6 ar
     2    1    2 ar
     3    1   26 1
     4    2    3 ar
     5    2   27 1
     6    3    4 ar
     7    3   28 1
     8    4    5 ar
     9    4    7 1
    10    5    6 ar
    11    5   29 1
    12    6   30 1
    13    7    8 1
    14    7   31 1
    15    7   32 1
    16    8    9 1
    17    8   33 1
    18    9   10 2
    19    9   11 2
    20    9   12 1
    21   12   17 ar
    22   12   13 ar
    23   13   14 ar
    24   13   34 1
    25   14   15 ar
    26   14   35 1
    27   15   16 ar
    28   15   25 1
    29   16   17 ar
    30   16   36 1
    31   17   18 1
    32   18   24 1
    33   18   19 1
    34   18   37 1
    35   19   20 2
    36   19   21 am
    37   21   22 am
    38   21   38 1
    39   22   23 2
    40   22   24 am
    41   24   39 1
@<TRIPOS>MOLECULE
CHEMBL19187__1
   39    41     0     0     0
SMALL
USER_CHARGES

@<TRIPOS>ATOM
      1 C1          5.2864   -8.5638   -0.9642 C.ar      1 <0>        -0.1096
      2 C2          5.7708   -7.5799   -1.8057 C.ar      1 <0>        -0.1213
      3 C3          6.1793   -6.3657   -1.2864 C.ar      1 <0>        -0.1034
      4 C4          6.1032   -6.1353    0.0745 C.ar      1 <0>        -0.1060
      5 C5          5.6179   -7.1189    0.9160 C.ar      1 <0>        -0.0988
      6 C6          5.2107   -8.3336    0.3968 C.ar      1 <0>        -0.1201
      7 C7          6.5495   -4.8120    0.6409 C.3       1 <0>         0.1571
      8 N1          5.4154   -3.8851    0.6684 N.pl3     1 <0>        -1.1167
      9 S1          5.4893   -2.5135    1.5934 S.o2      1 <0>         2.6786
     10 O1          4.2828   -1.8002    1.3592 O.2       1 <0>        -0.9230
     11 O2          5.8929   -2.9216    2.8933 O.2       1 <0>        -0.9441
     12 C8          6.7946   -1.5206    0.9494 C.ar      1 <0>        -0.6560
     13 C9          7.9099   -1.2585    1.7233 C.ar      1 <0>        -0.0018
     14 C10         8.9338   -0.4794    1.2189 C.ar      1 <0>        -0.1161
     15 C11         8.8428    0.0381   -0.0612 C.ar      1 <0>         0.0193
     16 C12         7.7268   -0.2248   -0.8352 C.ar      1 <0>        -0.1109
     17 C13         6.7056   -1.0086   -0.3314 C.ar      1 <0>         0.0059
     18 C14         5.4924   -1.2997   -1.1766 C.3       1 <0>         0.1151
     19 C15         4.4950   -0.1617   -1.0878 C.2       1 <0>         0.5270
     20 O3          3.9248    0.2364   -0.0947 O.2       1 <0>        -0.4054
     21 N2          4.3745    0.3159   -2.3422 N.am      1 <0>        -0.6796
     22 C16         5.1491   -0.3552   -3.2023 C.2       1 <0>         0.7063
     23 O4          5.2107   -0.1080   -4.3907 O.2       1 <0>        -0.5302
     24 N3          5.8518   -1.3344   -2.6047 N.am      1 <0>        -0.7173
     25 Cl1        10.1283    1.0174   -0.6953 Cl        1 <0>        -0.0411
     26 H1          4.9630   -9.5108   -1.3705 H         1 <0>         0.1242
     27 H2          5.8303   -7.7599   -2.8690 H         1 <0>         0.1249
     28 H3          6.5584   -5.5973   -1.9438 H         1 <0>         0.1237
     29 H4          5.5587   -6.9390    1.9792 H         1 <0>         0.1273
     30 H5          4.8320   -9.1022    1.0542 H         1 <0>         0.1258
     31 H6          6.9240   -4.9582    1.6540 H         1 <0>         0.0929
     32 H7          7.3417   -4.3984    0.0168 H         1 <0>         0.0767
     33 H8          4.6211   -4.0748    0.1449 H         1 <0>         0.4214
     34 H9          7.9808   -1.6625    2.7224 H         1 <0>         0.1621
     35 H10         9.8046   -0.2742    1.8238 H         1 <0>         0.1522
     36 H11         7.6553    0.1789   -1.8343 H         1 <0>         0.1455
     37 H12         5.0324   -2.2404   -0.8739 H         1 <0>         0.1307
     38 H13         3.7971    1.0546   -2.5909 H         1 <0>         0.4390
     39 H14         6.4741   -1.9442   -3.0311 H         1 <0>         0.4456
@<TRIPOS>BOND
     1    1    6 ar
     2    1    2 ar
     3    1   26 1
     4    2    3 ar
     5    2   27 1
     6    3    4 ar
     7    3   28 1
     8    4    5 ar
     9    4    7 1
    10    5    6 ar
    11    5   29 1
    12    6   30 1
    13    7    8 1
    14    7   31 1
    15    7   32 1
    16    8    9 1
    17    8   33 1
    18    9   10 2
    19    9   11 2
    20    9   12 1
    21   12   17 ar
    22   12   13 ar
    23   13   14 ar
    24   13   34 1
    25   14   15 ar
    26   14   35 1
    27   15   16 ar
    28   15   25 1
    29   16   17 ar
    30   16   36 1
    31   17   18 1
    32   18   24 1
    33   18   19 1
    34   18   37 1
    35   19   20 2
    36   19   21 am
    37   21   22 am
    38   21   38 1
    39   22   23 2
    40   22   24 am
    41   24   39 1
@<TRIPOS>MOLECULE
CHEMBL140199
   41    44     0     0     0
SMALL
USER_CHARGES

@<TRIPOS>ATOM
      1 C1         -0.0167    1.3791    0.0096 C.ar      1 <0>        -0.1168
      2 C2          1.1686    2.0921    0.0021 C.ar      1 <0>        -0.1209
      3 C3          2.3774    1.4263   -0.0129 C.ar      1 <0>        -0.0766
      4 C4          2.4023    0.0328   -0.0206 C.ar      1 <0>        -0.0225
      5 C5          1.2050   -0.6804   -0.0130 C.ar      1 <0>        -0.1069
      6 C6          0.0021   -0.0041    0.0020 C.ar      1 <0>        -0.1277
      7 C7          3.6985   -0.6885   -0.0373 C.2       1 <0>         0.1053
      8 C8          3.7619   -2.0562   -0.0505 C.2       1 <0>        -0.2359
      9 S1          5.5300   -2.3038   -0.0671 S.3       1 <0>         0.1239
     10 C9          5.9941   -0.6864   -0.0558 C.2       1 <0>         0.0495
     11 N1          4.8560   -0.0429   -0.0458 N.2       1 <0>        -0.4725
     12 C10         7.3888   -0.1157   -0.0611 C.3       1 <0>         0.2252
     13 N2          7.8514    0.0560    1.3183 N.am      1 <0>        -0.4387
     14 C11         8.5099   -0.9558    1.9210 C.2       1 <0>         0.5185
     15 O1          8.7189   -1.9998    1.3293 O.2       1 <0>        -0.5384
     16 C12         8.9701   -0.7745    3.3033 C.ar      1 <0>        -0.1346
     17 C13         9.6570   -1.7741    3.9909 C.ar      1 <0>        -0.0557
     18 C14        10.0644   -1.5457    5.2869 C.ar      1 <0>        -0.1284
     19 C15         9.7974   -0.3339    5.9110 C.ar      1 <0>        -0.0920
     20 C16         9.1255    0.6602    5.2563 C.ar      1 <0>        -0.1007
     21 C17         8.7007    0.4576    3.9418 C.ar      1 <0>        -0.0419
     22 C18         7.9786    1.4886    3.1961 C.2       1 <0>         0.1217
     23 N3          7.6043    1.2635    1.9720 N.2       1 <0>        -0.1193
     24 C19         7.6742    2.8141    3.8454 C.3       1 <0>        -0.1329
     25 C20         6.9288    3.6907    2.8723 C.2       1 <0>         0.4883
     26 O2          6.6688    3.2774    1.7551 O.co2     1 <0>        -0.6461
     27 O3          6.5857    4.8132    3.2022 O.co2     1 <0>        -0.7063
     28 H1         -0.9603    1.9042    0.0260 H         1 <0>         0.1205
     29 H2          1.1481    3.1719    0.0077 H         1 <0>         0.1262
     30 H3          3.3022    1.9840   -0.0191 H         1 <0>         0.1415
     31 H4          1.2185   -1.7603   -0.0193 H         1 <0>         0.1208
     32 H5         -0.9264   -0.5557    0.0079 H         1 <0>         0.1218
     33 H6          2.9637   -2.7837   -0.0508 H         1 <0>         0.1946
     34 H7          8.0581   -0.7969   -0.5866 H         1 <0>         0.1176
     35 H8          7.3842    0.8504   -0.5657 H         1 <0>         0.1309
     36 H9          9.8674   -2.7190    3.5120 H         1 <0>         0.1379
     37 H10        10.5968   -2.3171    5.8234 H         1 <0>         0.1299
     38 H11        10.1248   -0.1751    6.9279 H         1 <0>         0.1300
     39 H12         8.9244    1.5978    5.7532 H         1 <0>         0.1402
     40 H13         7.0611    2.6521    4.7319 H         1 <0>         0.0847
     41 H14         8.6064    3.3007    4.1323 H         1 <0>         0.0860
@<TRIPOS>BOND
     1    1    6 ar
     2    1    2 ar
     3    1   28 1
     4    2    3 ar
     5    2   29 1
     6    3    4 ar
     7    3   30 1
     8    4    5 ar
     9    4    7 1
    10    5    6 ar
    11    5   31 1
    12    6   32 1
    13    7   11 1
    14    7    8 2
    15    8    9 1
    16    8   33 1
    17    9   10 1
    18   10   11 2
    19   10   12 1
    20   12   13 1
    21   12   34 1
    22   12   35 1
    23   13   23 1
    24   13   14 am
    25   14   15 2
    26   14   16 1
    27   16   21 ar
    28   16   17 ar
    29   17   18 ar
    30   17   36 1
    31   18   19 ar
    32   18   37 1
    33   19   20 ar
    34   19   38 1
    35   20   21 ar
    36   20   39 1
    37   21   22 1
    38   22   23 2
    39   22   24 1
    40   24   25 1
    41   24   40 1
    42   24   41 1
    43   25   26 2
    44   25   27 1
@<TRIPOS>MOLECULE
CHEMBL261703
   45    46     0     0     0
SMALL
USER_CHARGES

@<TRIPOS>ATOM
      1 C1          0.2314    2.5192   -0.8560 C.ar      1 <0>        -0.1256
      2 C2          1.2444    3.4525   -0.9787 C.ar      1 <0>         0.0057
      3 C3          2.5626    3.0419   -1.0420 C.ar      1 <0>        -0.0462
      4 C4          2.8743    1.6959   -0.9833 C.ar      1 <0>        -0.0675
      5 C5          1.8643    0.7558   -0.8603 C.ar      1 <0>         0.0708
      6 C6          0.5368    1.1694   -0.7961 C.ar      1 <0>         0.1364
      7 O1         -0.4582    0.2503   -0.6749 O.3       1 <0>        -0.4859
      8 O2          2.1689   -0.5674   -0.8029 O.3       1 <0>        -0.4801
      9 N1          3.6429    4.0449   -1.1734 N.pl3     1 <0>         0.0267
     10 O3          4.7858    3.6849   -1.3347 O.2       1 <0>        -0.1758
     11 O4          3.3826    5.2243   -1.1194 O.3       1 <0>        -0.1074
     12 C7          0.9103    4.9205   -1.0442 C.3       1 <0>        -0.0821
     13 C8          1.0506    5.4117   -2.4864 C.3       1 <0>         0.0329
     14 H1          2.0490    5.1764   -2.8549 H         1 <0>         0.0806
     15 C9          0.8367    6.9028   -2.5323 C.2       1 <0>         0.4950
     16 O5          1.6211    7.6487   -1.9712 O.co2     1 <0>        -0.6644
     17 O6         -0.1208    7.3631   -3.1305 O.co2     1 <0>        -0.6825
     18 O7          0.0754    4.7651   -3.3067 O.3       1 <0>        -0.3291
     19 C10         0.3993    4.5653   -4.6013 C.2       1 <0>         0.4885
     20 O8          1.4810    4.9308   -5.0211 O.2       1 <0>        -0.4982
     21 C11        -0.5211    3.9295   -5.4723 C.2       1 <0>        -0.1269
     22 C12        -0.1969    3.7295   -6.7684 C.2       1 <0>        -0.0594
     23 C13        -1.1509    3.0704   -7.6713 C.ar      1 <0>         0.0130
     24 C14        -2.4968    2.9500   -7.3041 C.ar      1 <0>        -0.1152
     25 C15        -3.3881    2.3298   -8.1565 C.ar      1 <0>         0.1359
     26 C16        -2.9477    1.8249   -9.3799 C.ar      1 <0>         0.0909
     27 C17        -1.6134    1.9434   -9.7446 C.ar      1 <0>        -0.0710
     28 C18        -0.7181    2.5664   -8.9029 C.ar      1 <0>        -0.0228
     29 N2          0.7023    2.6969   -9.2985 N.pl3     1 <0>         0.0272
     30 O9          0.9902    2.9345  -10.4484 O.2       1 <0>        -0.1451
     31 O10         1.5746    2.5660   -8.4716 O.3       1 <0>        -0.1333
     32 O11        -3.8274    1.2148  -10.2172 O.3       1 <0>        -0.4747
     33 O12        -4.6959    2.2107   -7.8030 O.3       1 <0>        -0.4777
     34 H2         -0.7975    2.8430   -0.8022 H         1 <0>         0.1591
     35 H3          3.9051    1.3776   -1.0336 H         1 <0>         0.1613
     36 H4         -0.8048   -0.0678   -1.5198 H         1 <0>         0.4023
     37 H5          2.3161   -0.8986    0.0936 H         1 <0>         0.3949
     38 H6         -0.1141    5.0755   -0.7056 H         1 <0>         0.0901
     39 H7          1.5932    5.4775   -0.4026 H         1 <0>         0.1339
     40 H8         -1.4815    3.6050   -5.0996 H         1 <0>         0.1434
     41 H9          0.7635    4.0539   -7.1411 H         1 <0>         0.1562
     42 H10        -2.8365    3.3410   -6.3565 H         1 <0>         0.1661
     43 H11        -1.2774    1.5504  -10.6928 H         1 <0>         0.1615
     44 H12        -4.2559    1.8149  -10.8427 H         1 <0>         0.3967
     45 H13        -5.2484    2.9530   -8.0838 H         1 <0>         0.4017
@<TRIPOS>BOND
     1    1    6 ar
     2    1    2 ar
     3    1   34 1
     4    2    3 ar
     5    2   12 1
     6    3    4 ar
     7    3    9 1
     8    4    5 ar
     9    4   35 1
    10    5    6 ar
    11    5    8 1
    12    6    7 1
    13    7   36 1
    14    8   37 1
    15    9   10 2
    16    9   11 1
    17   12   13 1
    18   12   38 1
    19   12   39 1
    20   13   14 1
    21   13   15 1
    22   13   18 1
    23   15   16 2
    24   15   17 1
    25   18   19 1
    26   19   20 2
    27   19   21 1
    28   21   22 2
    29   21   40 1
    30   22   23 1
    31   22   41 1
    32   23   28 ar
    33   23   24 ar
    34   24   25 ar
    35   24   42 1
    36   25   26 ar
    37   25   33 1
    38   26   27 ar
    39   26   32 1
    40   27   28 ar
    41   27   43 1
    42   28   29 1
    43   29   30 2
    44   29   31 1
    45   32   44 1
    46   33   45 1
@<TRIPOS>MOLECULE
CHEMBL261703__1
   44    45     0     0     0
SMALL
USER_CHARGES

@<TRIPOS>ATOM
      1 C1          0.2314    2.5192   -0.8560 C.ar      1 <0>        -0.1238
      2 C2          1.2444    3.4525   -0.9787 C.ar      1 <0>         0.0096
      3 C3          2.5626    3.0419   -1.0420 C.ar      1 <0>        -0.0479
      4 C4          2.8743    1.6959   -0.9833 C.ar      1 <0>        -0.0678
      5 C5          1.8643    0.7558   -0.8603 C.ar      1 <0>         0.0676
      6 C6          0.5368    1.1694   -0.7961 C.ar      1 <0>         0.1393
      7 O1         -0.4582    0.2503   -0.6749 O.3       1 <0>        -0.4885
      8 O2          2.1691   -0.5683   -0.8029 O.3       1 <0>        -0.4791
      9 N1          3.6429    4.0449   -1.1734 N.pl3     1 <0>         0.0289
     10 O3          4.7858    3.6849   -1.3347 O.2       1 <0>        -0.1821
     11 O4          3.3826    5.2243   -1.1194 O.3       1 <0>        -0.1065
     12 C7          0.9103    4.9205   -1.0442 C.3       1 <0>        -0.0813
     13 C8          1.0506    5.4117   -2.4864 C.3       1 <0>         0.0328
     14 H1          2.0490    5.1764   -2.8549 H         1 <0>         0.0776
     15 C9          0.8367    6.9028   -2.5323 C.2       1 <0>         0.4952
     16 O5          1.6211    7.6487   -1.9712 O.co2     1 <0>        -0.6742
     17 O6         -0.1208    7.3631   -3.1305 O.co2     1 <0>        -0.6789
     18 O7          0.0754    4.7651   -3.3067 O.3       1 <0>        -0.3334
     19 C10         0.3993    4.5653   -4.6013 C.2       1 <0>         0.4999
     20 O8          1.4810    4.9308   -5.0211 O.2       1 <0>        -0.5149
     21 C11        -0.5211    3.9295   -5.4723 C.2       1 <0>        -0.1800
     22 C12        -0.1969    3.7295   -6.7684 C.2       1 <0>        -0.0154
     23 C13        -1.1509    3.0704   -7.6713 C.ar      1 <0>         0.0219
     24 C14        -2.4968    2.9500   -7.3041 C.ar      1 <0>        -0.2136
     25 C15        -3.3881    2.3298   -8.1565 C.ar      1 <0>         0.2814
     26 C16        -2.9477    1.8249   -9.3799 C.ar      1 <0>        -0.0332
     27 C17        -1.6134    1.9434   -9.7446 C.ar      1 <0>        -0.0408
     28 C18        -0.7181    2.5664   -8.9029 C.ar      1 <0>        -0.1515
     29 N2          0.7023    2.6969   -9.2985 N.pl3     1 <0>         0.0610
     30 O9          0.9902    2.9345  -10.4484 O.2       1 <0>        -0.2025
     31 O10         1.5746    2.5660   -8.4716 O.3       1 <0>        -0.1902
     32 O11        -3.8268    1.2152  -10.2166 O.3       1 <0>        -0.4815
     33 O12        -4.6959    2.2107   -7.8030 O.3       1 <0>        -0.6709
     34 H2         -0.7975    2.8430   -0.8022 H         1 <0>         0.1602
     35 H3          3.9051    1.3776   -1.0336 H         1 <0>         0.1596
     36 H4         -0.8048   -0.0678   -1.5198 H         1 <0>         0.4057
     37 H5          2.3163   -0.8995    0.0936 H         1 <0>         0.3911
     38 H6         -0.1141    5.0755   -0.7056 H         1 <0>         0.0887
     39 H7          1.5932    5.4775   -0.4026 H         1 <0>         0.1306
     40 H8         -1.4815    3.6050   -5.0996 H         1 <0>         0.1406
     41 H9          0.7635    4.0539   -7.1411 H         1 <0>         0.1420
     42 H10        -2.8365    3.3410   -6.3565 H         1 <0>         0.1338
     43 H11        -1.2774    1.5504  -10.6928 H         1 <0>         0.1256
     44 H12        -4.2554    1.8153  -10.8421 H         1 <0>         0.3652
@<TRIPOS>BOND
     1    1    6 ar
     2    1    2 ar
     3    1   34 1
     4    2    3 ar
     5    2   12 1
     6    3    4 ar
     7    3    9 1
     8    4    5 ar
     9    4   35 1
    10    5    6 ar
    11    5    8 1
    12    6    7 1
    13    7   36 1
    14    8   37 1
    15    9   10 2
    16    9   11 1
    17   12   13 1
    18   12   38 1
    19   12   39 1
    20   13   14 1
    21   13   15 1
    22   13   18 1
    23   15   16 2
    24   15   17 1
    25   18   19 1
    26   19   20 2
    27   19   21 1
    28   21   22 2
    29   21   40 1
    30   22   23 1
    31   22   41 1
    32   23   28 ar
    33   23   24 ar
    34   24   25 ar
    35   24   42 1
    36   25   26 ar
    37   25   33 1
    38   26   27 ar
    39   26   32 1
    40   27   28 ar
    41   27   43 1
    42   28   29 1
    43   29   30 2
    44   29   31 1
    45   32   44 1
@<TRIPOS>MOLECULE
CHEMBL10413
   36    38     0     0     0
SMALL
USER_CHARGES

@<TRIPOS>ATOM
      1 C1         -0.0167    1.3834    0.0096 C.ar      1 <0>        -0.1636
      2 C2          1.1629    2.0974    0.0022 C.ar      1 <0>        -0.0008
      3 C3          2.3776    1.4158   -0.0130 C.ar      1 <0>        -0.2069
      4 C4          2.3960    0.0095   -0.0207 C.ar      1 <0>         0.2437
      5 C5          1.2013   -0.6919   -0.0130 C.ar      1 <0>        -0.1552
      6 C6          0.0021   -0.0041    0.0020 C.ar      1 <0>         0.0369
      7 Cl1        -1.4941   -0.8844    0.0121 Cl        1 <0>        -0.0585
      8 N1          3.6210   -0.6419   -0.0354 N.am      1 <0>        -0.5013
      9 C7          4.7687    0.0578   -0.0417 C.2       1 <0>         0.7083
     10 O1          5.8211   -0.5507   -0.0541 O.2       1 <0>        -0.5353
     11 N2          4.8026    1.3995   -0.0352 N.am      1 <0>        -0.5550
     12 C8          3.6664    2.1297   -0.0210 C.2       1 <0>         0.5642
     13 O2          3.7062    3.3451   -0.0149 O.2       1 <0>        -0.4872
     14 C9          6.0971    2.0854   -0.0434 C.3       1 <0>         0.1555
     15 C10         6.5283    2.3277   -1.4669 C.ar      1 <0>        -0.1367
     16 C11         7.4473    1.4851   -2.0636 C.ar      1 <0>        -0.0486
     17 C12         7.8429    1.7064   -3.3693 C.ar      1 <0>        -0.1055
     18 C13         7.3198    2.7718   -4.0804 C.ar      1 <0>        -0.0543
     19 C14         6.4007    3.6159   -3.4850 C.ar      1 <0>        -0.1379
     20 C15         5.9996    3.3908   -2.1789 C.ar      1 <0>         0.1276
     21 F1          5.0975    4.2116   -1.5979 F         1 <0>        -0.1090
     22 Br1         7.8623    3.0738   -5.8665 Br        1 <0>        -0.0412
     23 C16         3.6640   -2.1063   -0.0436 C.3       1 <0>         0.0356
     24 C17         3.6658   -2.6008   -1.4671 C.2       1 <0>         0.4879
     25 O3          3.6341   -1.8039   -2.3893 O.co2     1 <0>        -0.6759
     26 O4          3.6989   -3.7977   -1.6966 O.co2     1 <0>        -0.6863
     27 H1         -0.9610    1.9073    0.0260 H         1 <0>         0.1425
     28 H2          1.1451    3.1772    0.0078 H         1 <0>         0.1504
     29 H3          1.2067   -1.7718   -0.0185 H         1 <0>         0.1502
     30 H4          6.0062    3.0393    0.4761 H         1 <0>         0.1114
     31 H5          6.8394    1.4664    0.4607 H         1 <0>         0.1152
     32 H6          7.8568    0.6537   -1.5092 H         1 <0>         0.1496
     33 H7          8.5610    1.0476   -3.8346 H         1 <0>         0.1418
     34 H8          5.9928    4.4480   -4.0396 H         1 <0>         0.1448
     35 H9          4.5689   -2.4460    0.4602 H         1 <0>         0.1019
     36 H10         2.7898   -2.4983    0.4762 H         1 <0>         0.0915
@<TRIPOS>BOND
     1    1    6 ar
     2    1    2 ar
     3    1   27 1
     4    2    3 ar
     5    2   28 1
     6    3   12 1
     7    3    4 ar
     8    4    5 ar
     9    4    8 1
    10    5    6 ar
    11    5   29 1
    12    6    7 1
    13    8    9 am
    14    8   23 1
    15    9   10 2
    16    9   11 am
    17   11   12 am
    18   11   14 1
    19   12   13 2
    20   14   15 1
    21   14   30 1
    22   14   31 1
    23   15   20 ar
    24   15   16 ar
    25   16   17 ar
    26   16   32 1
    27   17   18 ar
    28   17   33 1
    29   18   19 ar
    30   18   22 1
    31   19   20 ar
    32   19   34 1
    33   20   21 1
    34   23   24 1
    35   23   35 1
    36   23   36 1
    37   24   25 2
    38   24   26 1
@<TRIPOS>MOLECULE
CHEMBL77692
   37    39     0     0     0
SMALL
USER_CHARGES

@<TRIPOS>ATOM
      1 C1         -0.0187    1.5258    0.0104 C.3       1 <0>        -0.1194
      2 C2          0.0021   -0.0041    0.0020 C.3       1 <0>        -0.1383
      3 C3          0.7309   -0.5033    1.2229 C.ar      1 <0>         0.0191
      4 C4          0.0801   -1.3140    2.1275 C.ar      1 <0>        -0.1551
      5 C5          0.7185   -1.8045    3.2677 C.ar      1 <0>        -0.0253
      6 C6          2.0463   -1.4641    3.4705 C.ar      1 <0>        -0.1942
      7 C7          2.7077   -0.6221    2.5498 C.ar      1 <0>         0.1420
      8 C8          2.0504   -0.1514    1.4284 C.ar      1 <0>        -0.1094
      9 O1          4.0012   -0.2755    2.7655 O.3       1 <0>        -0.4879
     10 C9          2.8513   -1.9539    4.5984 C.2       1 <0>         0.4460
     11 O2          3.5831   -1.1804    5.1853 O.2       1 <0>        -0.4314
     12 C10         2.7923   -3.3614    5.0356 C.ar      1 <0>        -0.1333
     13 C11         3.9138   -4.1884    4.9822 C.ar      1 <0>        -0.0769
     14 C12         3.8009   -5.4961    5.4152 C.ar      1 <0>        -0.1250
     15 C13         2.5895   -5.9650    5.8928 C.ar      1 <0>        -0.1070
     16 C14         1.4804   -5.1382    5.9395 C.ar      1 <0>        -0.1183
     17 C15         1.5853   -3.8285    5.5020 C.ar      1 <0>        -0.0513
     18 C16         0.3874   -2.9301    5.5222 C.3       1 <0>        -0.0880
     19 C17        -0.1631   -2.6488    4.1511 C.3       1 <0>        -0.0719
     20 C18         0.7074   -0.4901   -1.2379 C.2       1 <0>         0.5018
     21 O3          1.7092   -1.1780   -1.1392 O.co2     1 <0>        -0.6861
     22 O4          0.2764   -0.1953   -2.3396 O.co2     1 <0>        -0.6939
     23 H1          1.0039    1.9031    0.0027 H         1 <0>         0.0490
     24 H2         -0.5459    1.8868   -0.8726 H         1 <0>         0.0627
     25 H3         -0.5289    1.8773    0.9072 H         1 <0>         0.0421
     26 H4         -1.0205   -0.3814    0.0098 H         1 <0>         0.0752
     27 H5         -0.9522   -1.5767    1.9495 H         1 <0>         0.1215
     28 H6          2.5617    0.4873    0.7234 H         1 <0>         0.1325
     29 H7          4.6421   -0.8830    2.3716 H         1 <0>         0.3852
     30 H8          4.8550   -3.8133    4.6083 H         1 <0>         0.1289
     31 H9          4.6581   -6.1523    5.3804 H         1 <0>         0.1273
     32 H10         2.5088   -6.9868    6.2330 H         1 <0>         0.1239
     33 H11         0.5390   -5.5123    6.3141 H         1 <0>         0.1285
     34 H12        -0.3920   -3.3988    6.1231 H         1 <0>         0.0837
     35 H13         0.6658   -1.9853    5.9889 H         1 <0>         0.0731
     36 H14        -1.1216   -2.1423    4.2639 H         1 <0>         0.0871
     37 H15        -0.3399   -3.6006    3.6501 H         1 <0>         0.0831
@<TRIPOS>BOND
     1    1    2 1
     2    1   23 1
     3    1   24 1
     4    1   25 1
     5    2    3 1
     6    2   20 1
     7    2   26 1
     8    3    8 ar
     9    3    4 ar
    10    4    5 ar
    11    4   27 1
    12    5   19 1
    13    5    6 ar
    14    6    7 ar
    15    6   10 1
    16    7    8 ar
    17    7    9 1
    18    8   28 1
    19    9   29 1
    20   10   11 2
    21   10   12 1
    22   12   17 ar
    23   12   13 ar
    24   13   14 ar
    25   13   30 1
    26   14   15 ar
    27   14   31 1
    28   15   16 ar
    29   15   32 1
    30   16   17 ar
    31   16   33 1
    32   17   18 1
    33   18   19 1
    34   18   34 1
    35   18   35 1
    36   19   36 1
    37   19   37 1
    38   20   21 2
    39   20   22 1
@<TRIPOS>MOLECULE
CHEMBL77692__1
   37    39     0     0     0
SMALL
USER_CHARGES

@<TRIPOS>ATOM
      1 C1         -0.0187    1.5258    0.0104 C.3       1 <0>        -0.1173
      2 C2          0.0021   -0.0041    0.0020 C.3       1 <0>        -0.1363
      3 C3          0.7074   -0.4901   -1.2379 C.ar      1 <0>         0.0090
      4 C4          0.0359   -1.2817   -2.1442 C.ar      1 <0>        -0.1506
      5 C5          0.6480   -1.7482   -3.3086 C.ar      1 <0>        -0.0230
      6 C6          1.9637   -1.3841   -3.5460 C.ar      1 <0>        -0.1947
      7 C7          2.6547   -0.5842   -2.6097 C.ar      1 <0>         0.1450
      8 C8          2.0228   -0.1359   -1.4647 C.ar      1 <0>        -0.1362
      9 O1          3.9491   -0.2492   -2.8378 O.3       1 <0>        -0.4825
     10 C9          2.7092   -1.7606   -4.7554 C.2       1 <0>         0.4435
     11 O2          3.8610   -2.1354   -4.6499 O.2       1 <0>        -0.4270
     12 C10         2.0933   -1.6950   -6.0940 C.ar      1 <0>        -0.1332
     13 C11         2.5897   -0.8472   -7.0835 C.ar      1 <0>        -0.0779
     14 C12         1.9776   -0.8359   -8.3227 C.ar      1 <0>        -0.1258
     15 C13         0.8911   -1.6583   -8.5655 C.ar      1 <0>        -0.1070
     16 C14         0.4027   -2.4946   -7.5766 C.ar      1 <0>        -0.1178
     17 C15         1.0080   -2.5065   -6.3311 C.ar      1 <0>        -0.0495
     18 C16         0.4744   -3.3869   -5.2435 C.3       1 <0>        -0.0903
     19 C17        -0.2356   -2.6227   -4.1601 C.3       1 <0>        -0.0721
     20 C18         0.7309   -0.5033    1.2229 C.2       1 <0>         0.5038
     21 O3          0.3147   -1.4781    1.8253 O.co2     1 <0>        -0.6937
     22 O4          1.7369    0.0677    1.6083 O.co2     1 <0>        -0.6857
     23 H1          1.0039    1.9031    0.0027 H         1 <0>         0.0612
     24 H2         -0.5459    1.8868   -0.8726 H         1 <0>         0.0383
     25 H3         -0.5289    1.8773    0.9072 H         1 <0>         0.0514
     26 H4         -1.0205   -0.3814    0.0098 H         1 <0>         0.0730
     27 H5         -0.9920   -1.5488   -1.9480 H         1 <0>         0.1253
     28 H6          2.5529    0.4809   -0.7541 H         1 <0>         0.1472
     29 H7          4.0610    0.5751   -3.3307 H         1 <0>         0.3818
     30 H8          3.4384   -0.2095   -6.8848 H         1 <0>         0.1286
     31 H9          2.3470   -0.1852   -9.1016 H         1 <0>         0.1271
     32 H10         0.4195   -1.6475   -9.5370 H         1 <0>         0.1240
     33 H11        -0.4453   -3.1333   -7.7748 H         1 <0>         0.1289
     34 H12        -0.2219   -4.1020   -5.6816 H         1 <0>         0.0849
     35 H13         1.3040   -3.9365   -4.7989 H         1 <0>         0.0745
     36 H14        -0.7393   -3.3380   -3.5099 H         1 <0>         0.0898
     37 H15        -0.9953   -1.9940   -4.6246 H         1 <0>         0.0830
@<TRIPOS>BOND
     1    1    2 1
     2    1   23 1
     3    1   24 1
     4    1   25 1
     5    2    3 1
     6    2   20 1
     7    2   26 1
     8    3    8 ar
     9    3    4 ar
    10    4    5 ar
    11    4   27 1
    12    5   19 1
    13    5    6 ar
    14    6    7 ar
    15    6   10 1
    16    7    8 ar
    17    7    9 1
    18    8   28 1
    19    9   29 1
    20   10   11 2
    21   10   12 1
    22   12   17 ar
    23   12   13 ar
    24   13   14 ar
    25   13   30 1
    26   14   15 ar
    27   14   31 1
    28   15   16 ar
    29   15   32 1
    30   16   17 ar
    31   16   33 1
    32   17   18 1
    33   18   19 1
    34   18   34 1
    35   18   35 1
    36   19   36 1
    37   19   37 1
    38   20   21 2
    39   20   22 1
@<TRIPOS>MOLECULE
CHEMBL132245
   39    42     0     0     0
SMALL
USER_CHARGES

@<TRIPOS>ATOM
      1 C1         -0.0167    1.3781    0.0096 C.ar      1 <0>        -0.1245
      2 C2          1.1709    2.0855    0.0021 C.ar      1 <0>        -0.1194
      3 C3          2.3773    1.4107   -0.0130 C.ar      1 <0>        -0.1118
      4 C4          2.3960    0.0285   -0.0201 C.ar      1 <0>        -0.0775
      5 C5          1.2084   -0.6789   -0.0117 C.ar      1 <0>        -0.1118
      6 C6          0.0021   -0.0041    0.0020 C.ar      1 <0>        -0.1205
      7 C7          3.7112   -0.7071   -0.0376 C.3       1 <0>        -0.0941
      8 C8          4.1714   -0.9633    1.3989 C.3       1 <0>         0.1045
      9 N1          5.4498   -1.6784    1.3820 N.am      1 <0>        -0.5662
     10 C9          5.4470   -3.0202    1.3698 C.2       1 <0>         0.5973
     11 O1          4.3793   -3.6033    1.3755 O.2       1 <0>        -0.4993
     12 C10         6.6781   -3.8077    1.3495 C.2       1 <0>        -0.0909
     13 C11         6.9214   -5.1641    1.3318 C.2       1 <0>        -0.0782
     14 C12         8.3096   -5.3313    1.3164 C.2       1 <0>        -0.2141
     15 C13         8.8768   -4.1003    1.3251 C.2       1 <0>         0.0668
     16 N2          7.9041   -3.1694    1.3456 N.pl3     1 <0>        -0.3953
     17 C14         7.9087   -1.7081    1.3631 C.3       1 <0>         0.0319
     18 C15         6.5982   -0.9699    1.3735 C.2       1 <0>         0.5629
     19 O2          6.5741    0.2423    1.3782 O.2       1 <0>        -0.4609
     20 C16         8.7175   -1.2176    0.1523 C.3       1 <0>        -0.1743
     21 C17         9.9065   -0.5321    0.7951 C.2       1 <0>         0.4824
     22 O3         10.9081    0.0640    0.1306 O.3       1 <0>        -0.6196
     23 N3          9.8068   -0.6095    2.0899 N.2       1 <0>        -0.6682
     24 C18         8.7266   -1.2475    2.5429 C.2       1 <0>         0.5282
     25 O4          8.4484   -1.4274    3.7109 O.2       1 <0>        -0.5068
     26 H1         -0.9591    1.9053    0.0259 H         1 <0>         0.1196
     27 H2          1.1563    3.1654    0.0076 H         1 <0>         0.1217
     28 H3          3.3051    1.9634   -0.0196 H         1 <0>         0.1247
     29 H4          1.2231   -1.7588   -0.0176 H         1 <0>         0.1242
     30 H5         -0.9258   -0.5567    0.0082 H         1 <0>         0.1211
     31 H6          3.5884   -1.6586   -0.5549 H         1 <0>         0.0803
     32 H7          4.4573   -0.1052   -0.5563 H         1 <0>         0.0786
     33 H8          4.2941   -0.0118    1.9163 H         1 <0>         0.0984
     34 H9          3.4252   -1.5652    1.9176 H         1 <0>         0.1015
     35 H10         6.1800   -5.9494    1.3302 H         1 <0>         0.1507
     36 H11         8.8363   -6.2741    1.3004 H         1 <0>         0.1535
     37 H12         9.9378   -3.8987    1.3172 H         1 <0>         0.1713
     38 H13         9.0419   -2.0581   -0.4611 H         1 <0>         0.1083
     39 H14         8.1365   -0.5091   -0.4383 H         1 <0>         0.1057
@<TRIPOS>BOND
     1    1    6 ar
     2    1    2 ar
     3    1   26 1
     4    2    3 ar
     5    2   27 1
     6    3    4 ar
     7    3   28 1
     8    4    5 ar
     9    4    7 1
    10    5    6 ar
    11    5   29 1
    12    6   30 1
    13    7    8 1
    14    7   31 1
    15    7   32 1
    16    8    9 1
    17    8   33 1
    18    8   34 1
    19    9   18 am
    20    9   10 am
    21   10   11 2
    22   10   12 1
    23   12   16 1
    24   12   13 2
    25   13   14 1
    26   13   35 1
    27   14   15 2
    28   14   36 1
    29   15   16 1
    30   15   37 1
    31   16   17 1
    32   17   24 1
    33   17   18 1
    34   17   20 1
    35   18   19 2
    36   20   21 1
    37   20   38 1
    38   20   39 1
    39   21   22 1
    40   21   23 2
    41   23   24 1
    42   24   25 2
@<TRIPOS>MOLECULE
CHEMBL132245__1
   39    42     0     0     0
SMALL
USER_CHARGES

@<TRIPOS>ATOM
      1 C1         -0.0167    1.3781    0.0096 C.ar      1 <0>        -0.1252
      2 C2          1.1709    2.0855    0.0021 C.ar      1 <0>        -0.1194
      3 C3          2.3773    1.4107   -0.0130 C.ar      1 <0>        -0.1119
      4 C4          2.3960    0.0285   -0.0201 C.ar      1 <0>        -0.0759
      5 C5          1.2084   -0.6789   -0.0117 C.ar      1 <0>        -0.1121
      6 C6          0.0021   -0.0041    0.0020 C.ar      1 <0>        -0.1207
      7 C7          3.7112   -0.7071   -0.0376 C.3       1 <0>        -0.0965
      8 C8          4.1714   -0.9633    1.3989 C.3       1 <0>         0.1059
      9 N1          5.4498   -1.6784    1.3820 N.am      1 <0>        -0.5666
     10 C9          5.4470   -3.0202    1.3698 C.2       1 <0>         0.5972
     11 O1          4.3793   -3.6033    1.3702 O.2       1 <0>        -0.4993
     12 C10         6.6781   -3.8077    1.3556 C.2       1 <0>        -0.0910
     13 C11         6.9215   -5.1642    1.3447 C.2       1 <0>        -0.0782
     14 C12         8.3097   -5.3315    1.3343 C.2       1 <0>        -0.2140
     15 C13         8.8769   -4.1005    1.3387 C.2       1 <0>         0.0668
     16 N2          7.9041   -3.1694    1.3511 N.pl3     1 <0>        -0.3953
     17 C14         7.9087   -1.7081    1.3592 C.3       1 <0>         0.0316
     18 C15         6.5982   -0.9699    1.3735 C.2       1 <0>         0.5629
     19 O2          6.5741    0.2423    1.3813 O.2       1 <0>        -0.4609
     20 C16         8.7369   -1.2389    2.5653 C.3       1 <0>        -0.1742
     21 C17         9.9156   -0.5420    1.9156 C.2       1 <0>         0.4824
     22 O3         10.9285    0.0412    2.5743 O.3       1 <0>        -0.6195
     23 N3          9.7949   -0.5965    0.6214 N.2       1 <0>        -0.6683
     24 C18         8.7075   -1.2266    0.1747 C.2       1 <0>         0.5281
     25 O4          8.4106   -1.3863   -0.9917 O.2       1 <0>        -0.5069
     26 H1         -0.9591    1.9053    0.0259 H         1 <0>         0.1194
     27 H2          1.1563    3.1654    0.0076 H         1 <0>         0.1215
     28 H3          3.3051    1.9634   -0.0196 H         1 <0>         0.1247
     29 H4          1.2231   -1.7588   -0.0176 H         1 <0>         0.1241
     30 H5         -0.9258   -0.5567    0.0082 H         1 <0>         0.1209
     31 H6          3.5884   -1.6586   -0.5549 H         1 <0>         0.0809
     32 H7          4.4573   -0.1052   -0.5563 H         1 <0>         0.0806
     33 H8          4.2941   -0.0118    1.9163 H         1 <0>         0.0979
     34 H9          3.4252   -1.5652    1.9176 H         1 <0>         0.1012
     35 H10         6.1801   -5.9495    1.3442 H         1 <0>         0.1507
     36 H11         8.8365   -6.2743    1.3246 H         1 <0>         0.1535
     37 H12         9.9379   -3.8988    1.3335 H         1 <0>         0.1712
     38 H13         8.1657   -0.5410    3.1776 H         1 <0>         0.1057
     39 H14         9.0711   -2.0901    3.1585 H         1 <0>         0.1085
@<TRIPOS>BOND
     1    1    6 ar
     2    1    2 ar
     3    1   26 1
     4    2    3 ar
     5    2   27 1
     6    3    4 ar
     7    3   28 1
     8    4    5 ar
     9    4    7 1
    10    5    6 ar
    11    5   29 1
    12    6   30 1
    13    7    8 1
    14    7   31 1
    15    7   32 1
    16    8    9 1
    17    8   33 1
    18    8   34 1
    19    9   18 am
    20    9   10 am
    21   10   11 2
    22   10   12 1
    23   12   16 1
    24   12   13 2
    25   13   14 1
    26   13   35 1
    27   14   15 2
    28   14   36 1
    29   15   16 1
    30   15   37 1
    31   16   17 1
    32   17   24 1
    33   17   18 1
    34   17   20 1
    35   18   19 2
    36   20   21 1
    37   20   38 1
    38   20   39 1
    39   21   22 1
    40   21   23 2
    41   23   24 1
    42   24   25 2
@<TRIPOS>MOLECULE
CHEMBL241577
   37    38     0     0     0
SMALL
USER_CHARGES

@<TRIPOS>ATOM
      1 C1         -0.0167    1.3779    0.0096 C.ar      1 <0>        -0.1175
      2 C2          1.1711    2.0854    0.0021 C.ar      1 <0>        -0.0488
      3 C3          2.3773    1.4107   -0.0130 C.ar      1 <0>        -0.0994
      4 C4          2.3961    0.0283   -0.0201 C.ar      1 <0>        -0.0371
      5 C5          1.2086   -0.6790   -0.0117 C.ar      1 <0>        -0.0511
      6 C6          0.0021   -0.0041    0.0020 C.ar      1 <0>        -0.0518
      7 N1          1.2287   -2.1590   -0.0202 N.pl3     1 <0>         0.0333
      8 O1          2.2838   -2.7492   -0.0346 O.2       1 <0>        -0.1546
      9 O2          0.1900   -2.7777   -0.0128 O.3       1 <0>        -0.1603
     10 C7          3.6720    2.1819   -0.0222 C.3       1 <0>         0.1622
     11 N2          4.1052    2.4254    1.3559 N.am      1 <0>        -0.7374
     12 C8          5.2460    3.1023    1.5941 C.2       1 <0>         0.5530
     13 O3          5.9157    3.5110    0.6650 O.2       1 <0>        -0.4776
     14 C9          5.6821    3.3474    2.9814 C.ar      1 <0>        -0.1822
     15 C10         4.9183    2.8744    4.0518 C.ar      1 <0>        -0.0353
     16 C11         5.3308    3.1058    5.3453 C.ar      1 <0>        -0.1755
     17 C12         6.5018    3.8074    5.5911 C.ar      1 <0>         0.0353
     18 C13         7.2662    4.2805    4.5414 C.ar      1 <0>        -0.2198
     19 C14         6.8680    4.0510    3.2334 C.ar      1 <0>         0.2100
     20 O4          7.6201    4.5099    2.2019 O.3       1 <0>        -0.2356
     21 C15         8.8155    5.2183    2.5354 C.3       1 <0>        -0.0191
     22 C16         9.5142    5.6479    1.2712 C.2       1 <0>         0.5013
     23 O5          9.0331    5.3729    0.1852 O.co2     1 <0>        -0.6579
     24 O6         10.5606    6.2705    1.3344 O.co2     1 <0>        -0.6882
     25 Cl1         7.0097    4.0932    7.2264 Cl        1 <0>        -0.0671
     26 H1         -0.9591    1.9051    0.0259 H         1 <0>         0.1501
     27 H2          1.1565    3.1653    0.0076 H         1 <0>         0.1477
     28 H3          3.3385   -0.4989   -0.0326 H         1 <0>         0.1570
     29 H4         -0.9258   -0.5567    0.0082 H         1 <0>         0.1536
     30 H5          4.4344    1.6056   -0.5463 H         1 <0>         0.0858
     31 H6          3.5237    3.1349   -0.5302 H         1 <0>         0.0879
     32 H7          3.5710    2.0994    2.0970 H         1 <0>         0.3950
     33 H8          4.0055    2.3283    3.8649 H         1 <0>         0.1346
     34 H9          4.7397    2.7398    6.1717 H         1 <0>         0.1362
     35 H10         8.1767    4.8263    4.7403 H         1 <0>         0.1472
     36 H11         8.5633    6.0978    3.1280 H         1 <0>         0.0630
     37 H12         9.4741    4.5685    3.1117 H         1 <0>         0.0632
@<TRIPOS>BOND
     1    1    6 ar
     2    1    2 ar
     3    1   26 1
     4    2    3 ar
     5    2   27 1
     6    3    4 ar
     7    3   10 1
     8    4    5 ar
     9    4   28 1
    10    5    6 ar
    11    5    7 1
    12    6   29 1
    13    7    8 2
    14    7    9 1
    15   10   11 1
    16   10   30 1
    17   10   31 1
    18   11   12 am
    19   11   32 1
    20   12   13 2
    21   12   14 1
    22   14   19 ar
    23   14   15 ar
    24   15   16 ar
    25   15   33 1
    26   16   17 ar
    27   16   34 1
    28   17   18 ar
    29   17   25 1
    30   18   19 ar
    31   18   35 1
    32   19   20 1
    33   20   21 1
    34   21   22 1
    35   21   36 1
    36   21   37 1
    37   22   23 2
    38   22   24 1
@<TRIPOS>MOLECULE
CHEMBL434076
   30    31     0     0     0
SMALL
USER_CHARGES

@<TRIPOS>ATOM
      1 C1         -0.0167    1.3779    0.0096 C.ar      1 <0>        -0.1227
      2 C2          1.1711    2.0854    0.0021 C.ar      1 <0>        -0.0463
      3 C3          2.3773    1.4107   -0.0130 C.ar      1 <0>        -0.1259
      4 C4          2.3961    0.0283   -0.0201 C.ar      1 <0>        -0.0193
      5 C5          1.2086   -0.6790   -0.0117 C.ar      1 <0>        -0.0513
      6 C6          0.0021   -0.0041    0.0020 C.ar      1 <0>        -0.0435
      7 N1          1.2287   -2.1590   -0.0202 N.pl3     1 <0>         0.0339
      8 O1          2.2838   -2.7492   -0.0346 O.2       1 <0>        -0.1425
      9 O2          0.1900   -2.7777   -0.0128 O.3       1 <0>        -0.1661
     10 C7          3.6720    2.1819   -0.0222 C.3       1 <0>         0.1594
     11 N2          4.1052    2.4254    1.3559 N.am      1 <0>        -0.5385
     12 C8          3.7706    3.4969    2.1069 C.2       1 <0>         0.5059
     13 O3          3.0668    4.4306    1.7828 O.2       1 <0>        -0.4080
     14 C9          4.4519    3.2888    3.4253 C.2       1 <0>         0.4994
     15 O4          4.4163    4.0184    4.3942 O.2       1 <0>        -0.3933
     16 N3          5.1137    2.1174    3.3075 N.am      1 <0>        -0.4876
     17 C10         4.8951    1.6168    2.0808 C.2       1 <0>         0.5168
     18 S1          5.5439    0.1381    1.5121 S.2       1 <0>        -0.4411
     19 C11         5.9325    1.4926    4.3493 C.3       1 <0>         0.0331
     20 C12         5.0710    0.5841    5.1880 C.2       1 <0>         0.4952
     21 O5          3.8831    0.4691    4.9385 O.co2     1 <0>        -0.6803
     22 O6          5.5618   -0.0359    6.1160 O.co2     1 <0>        -0.6738
     23 H1         -0.9591    1.9051    0.0259 H         1 <0>         0.1499
     24 H2          1.1565    3.1653    0.0076 H         1 <0>         0.1459
     25 H3          3.3385   -0.4989   -0.0326 H         1 <0>         0.1709
     26 H4         -0.9258   -0.5567    0.0082 H         1 <0>         0.1545
     27 H5          4.4344    1.6056   -0.5463 H         1 <0>         0.1315
     28 H6          3.5237    3.1349   -0.5302 H         1 <0>         0.1211
     29 H7          6.7294    0.9114    3.8854 H         1 <0>         0.1186
     30 H8          6.3680    2.2662    4.9818 H         1 <0>         0.1041
@<TRIPOS>BOND
     1    1    6 ar
     2    1    2 ar
     3    1   23 1
     4    2    3 ar
     5    2   24 1
     6    3    4 ar
     7    3   10 1
     8    4    5 ar
     9    4   25 1
    10    5    6 ar
    11    5    7 1
    12    6   26 1
    13    7    8 2
    14    7    9 1
    15   10   11 1
    16   10   27 1
    17   10   28 1
    18   11   17 1
    19   11   12 am
    20   12   13 2
    21   12   14 1
    22   14   15 2
    23   14   16 am
    24   16   17 1
    25   16   19 1
    26   17   18 2
    27   19   20 1
    28   19   29 1
    29   19   30 1
    30   20   21 2
    31   20   22 1
@<TRIPOS>MOLECULE
CHEMBL399598
   37    39     0     0     0
SMALL
USER_CHARGES

@<TRIPOS>ATOM
      1 C1         -0.0167    1.3838    0.0097 C.ar      1 <0>        -0.2169
      2 C2          1.1630    2.0942    0.0022 C.ar      1 <0>        -0.0179
      3 C3          2.3849    1.4164   -0.0131 C.ar      1 <0>        -0.1953
      4 C4          2.4009    0.0140   -0.0207 C.ar      1 <0>         0.2263
      5 C5          1.2058   -0.6867   -0.0130 C.ar      1 <0>        -0.2651
      6 C6          0.0021   -0.0041    0.0020 C.ar      1 <0>         0.1696
      7 F1         -1.1606   -0.6920    0.0098 F         1 <0>        -0.1347
      8 O1          3.5817   -0.6536   -0.0360 O.3       1 <0>        -0.2344
      9 C7          3.5198   -2.0812   -0.0430 C.3       1 <0>        -0.0195
     10 C8          4.9174   -2.6446   -0.0598 C.2       1 <0>         0.5011
     11 O2          5.8776   -1.8932   -0.0653 O.co2     1 <0>        -0.6574
     12 O3          5.0881   -3.8518   -0.0679 O.co2     1 <0>        -0.6883
     13 C9          3.6509    2.1717   -0.0216 C.2       1 <0>         0.5596
     14 O4          4.7126    1.5788   -0.0349 O.2       1 <0>        -0.4752
     15 N1          3.6317    3.5193   -0.0147 N.am      1 <0>        -0.7361
     16 C10         4.8898    4.2699   -0.0231 C.3       1 <0>         0.2063
     17 C11         4.5933    5.7474   -0.0128 C.2       1 <0>         0.1012
     18 N2          4.4520    6.5254    1.0203 N.2       1 <0>        -0.4885
     19 C12         4.1863    7.8425    0.8971 C.ar      1 <0>         0.1093
     20 C13         4.0029    8.8259    1.8948 C.ar      1 <0>         0.1164
     21 C14         3.7364   10.1289    1.5476 C.ar      1 <0>         0.1099
     22 C15         3.6395   10.5180    0.2167 C.ar      1 <0>        -0.1446
     23 C16         3.8143    9.5773   -0.7828 C.ar      1 <0>         0.1879
     24 C17         4.0814    8.2708   -0.4442 C.ar      1 <0>        -0.2178
     25 S1          4.3774    6.7657   -1.3354 S.3       1 <0>         0.1877
     26 F2          3.7239    9.9391   -2.0813 F         1 <0>        -0.1122
     27 F3          3.5645   11.0506    2.5203 F         1 <0>        -0.1110
     28 F4          4.0896    8.4832    3.1987 F         1 <0>        -0.1048
     29 H1         -0.9604    1.9088    0.0260 H         1 <0>         0.1384
     30 H2          1.1439    3.1740    0.0078 H         1 <0>         0.1354
     31 H3          1.2135   -1.7666   -0.0192 H         1 <0>         0.1492
     32 H4          2.9995   -2.4267    0.8504 H         1 <0>         0.0636
     33 H5          2.9819   -2.4172   -0.9295 H         1 <0>         0.0637
     34 H6          2.7849    3.9922   -0.0041 H         1 <0>         0.3975
     35 H7          5.4737    4.0103    0.8599 H         1 <0>         0.1130
     36 H8          5.4564    4.0192   -0.9199 H         1 <0>         0.1083
     37 H9          3.4290   11.5469   -0.0353 H         1 <0>         0.1751
@<TRIPOS>BOND
     1    1    6 ar
     2    1    2 ar
     3    1   29 1
     4    2    3 ar
     5    2   30 1
     6    3    4 ar
     7    3   13 1
     8    4    5 ar
     9    4    8 1
    10    5    6 ar
    11    5   31 1
    12    6    7 1
    13    8    9 1
    14    9   10 1
    15    9   32 1
    16    9   33 1
    17   10   11 2
    18   10   12 1
    19   13   14 2
    20   13   15 am
    21   15   16 1
    22   15   34 1
    23   16   17 1
    24   16   35 1
    25   16   36 1
    26   17   25 1
    27   17   18 2
    28   18   19 1
    29   19   24 ar
    30   19   20 ar
    31   20   21 ar
    32   20   28 1
    33   21   22 ar
    34   21   27 1
    35   22   23 ar
    36   22   37 1
    37   23   24 ar
    38   23   26 1
    39   24   25 1
@<TRIPOS>MOLECULE
CHEMBL395347
   35    36     0     0     0
SMALL
USER_CHARGES

@<TRIPOS>ATOM
      1 C1         -0.0167    1.3836    0.0096 C.ar      1 <0>        -0.2172
      2 C2          1.1632    2.0941    0.0022 C.ar      1 <0>        -0.0211
      3 C3          2.3853    1.4160   -0.0131 C.ar      1 <0>        -0.1657
      4 C4          2.4009    0.0132   -0.0207 C.ar      1 <0>         0.2266
      5 C5          1.2059   -0.6870   -0.0131 C.ar      1 <0>        -0.2634
      6 C6          0.0021   -0.0041    0.0020 C.ar      1 <0>         0.1734
      7 F1         -1.1607   -0.6919    0.0094 F         1 <0>        -0.1345
      8 O1          3.5818   -0.6549   -0.0360 O.3       1 <0>        -0.1833
      9 C7          3.5194   -2.0825   -0.0430 C.3       1 <0>        -0.0392
     10 C8          4.9169   -2.6463   -0.0598 C.2       1 <0>         0.5006
     11 O2          5.8773   -1.8952   -0.0653 O.co2     1 <0>        -0.6458
     12 O3          5.0872   -3.8535   -0.0679 O.co2     1 <0>        -0.6975
     13 C9          3.6500    2.1702   -0.0216 C.2       1 <0>         0.3371
     14 S1          5.1445    1.3352   -0.0403 S.2       1 <0>        -0.4241
     15 N1          3.6311    3.5178   -0.0147 N.pl3     1 <0>        -0.6622
     16 C10         4.8893    4.2682   -0.0231 C.3       1 <0>         0.1512
     17 C11         4.5931    5.7457   -0.0129 C.ar      1 <0>        -0.1298
     18 C12         4.6440    6.4691   -1.1896 C.ar      1 <0>        -0.0615
     19 C13         4.3721    7.8241   -1.1811 C.ar      1 <0>        -0.1025
     20 C14         4.0490    8.4582    0.0054 C.ar      1 <0>        -0.0577
     21 C15         3.9980    7.7364    1.1836 C.ar      1 <0>        -0.1300
     22 C16         4.2644    6.3777    1.1743 C.ar      1 <0>         0.1260
     23 F2          4.2095    5.6702    2.3239 F         1 <0>        -0.1224
     24 Br1         3.6777   10.3124    0.0158 Br        1 <0>        -0.0334
     25 H1         -0.9605    1.9085    0.0260 H         1 <0>         0.1376
     26 H2          1.1441    3.1739    0.0078 H         1 <0>         0.1304
     27 H3          1.2134   -1.7670   -0.0189 H         1 <0>         0.1504
     28 H4          2.9991   -2.4279    0.8504 H         1 <0>         0.0584
     29 H5          2.9815   -2.4184   -0.9295 H         1 <0>         0.0585
     30 H6          2.7843    3.9909   -0.0041 H         1 <0>         0.3922
     31 H7          5.4731    4.0085    0.8599 H         1 <0>         0.1024
     32 H8          5.4558    4.0174   -0.9199 H         1 <0>         0.1050
     33 H9          4.8968    5.9752   -2.1162 H         1 <0>         0.1491
     34 H10         4.4121    8.3884   -2.1011 H         1 <0>         0.1441
     35 H11         3.7465    8.2313    2.1100 H         1 <0>         0.1485
@<TRIPOS>BOND
     1    1    6 ar
     2    1    2 ar
     3    1   25 1
     4    2    3 ar
     5    2   26 1
     6    3    4 ar
     7    3   13 1
     8    4    5 ar
     9    4    8 1
    10    5    6 ar
    11    5   27 1
    12    6    7 1
    13    8    9 1
    14    9   10 1
    15    9   28 1
    16    9   29 1
    17   10   11 2
    18   10   12 1
    19   13   14 2
    20   13   15 1
    21   15   16 1
    22   15   30 1
    23   16   17 1
    24   16   31 1
    25   16   32 1
    26   17   22 ar
    27   17   18 ar
    28   18   19 ar
    29   18   33 1
    30   19   20 ar
    31   19   34 1
    32   20   21 ar
    33   20   24 1
    34   21   22 ar
    35   21   35 1
    36   22   23 1
@<TRIPOS>MOLECULE
CHEMBL75245
   31    33     0     0     0
SMALL
USER_CHARGES

@<TRIPOS>ATOM
      1 C1         -0.0166    1.3693    0.0096 C.ar      1 <0>        -0.0960
      2 C2          1.1721    2.0791    0.0020 C.ar      1 <0>        -0.1265
      3 C3          2.3589    1.3891   -0.0372 C.ar      1 <0>        -0.0751
      4 C4          2.3812   -0.0187   -0.0548 C.ar      1 <0>        -0.1310
      5 C5          1.2000   -0.7333   -0.0060 C.ar      1 <0>        -0.0315
      6 C6          0.0021   -0.0041    0.0020 C.ar      1 <0>        -0.1314
      7 C7          0.9711   -2.2187    0.1017 C.3       1 <0>        -0.0758
      8 S1          2.4298   -3.1742    0.5394 S.3       1 <0>        -0.1260
      9 C8          3.5439   -2.9724   -0.8068 C.ar      1 <0>        -0.0891
     10 C9          3.9064   -4.0613   -1.5956 C.ar      1 <0>        -0.0668
     11 C10         4.7612   -3.8624   -2.6623 C.ar      1 <0>        -0.0031
     12 C11         5.2484   -2.5967   -2.9535 C.ar      1 <0>        -0.0922
     13 C12         4.9018   -1.5154   -2.1698 C.ar      1 <0>        -0.0805
     14 C13         4.0533   -1.7182   -1.0763 C.ar      1 <0>        -0.1374
     15 C14         3.7064   -0.6347   -0.1598 C.2       1 <0>         0.4544
     16 O1          4.5828   -0.2126    0.5703 O.2       1 <0>        -0.4396
     17 C15         5.1684   -5.0332   -3.5194 C.3       1 <0>        -0.1637
     18 C16         4.1895   -5.1892   -4.6546 C.2       1 <0>         0.4981
     19 O2          3.2484   -4.4210   -4.7580 O.co2     1 <0>        -0.6868
     20 O3          4.3386   -6.0837   -5.4695 O.co2     1 <0>        -0.6975
     21 H1         -0.9593    1.8959    0.0259 H         1 <0>         0.1280
     22 H2          1.1661    3.1588    0.0263 H         1 <0>         0.1316
     23 H3          3.2905    1.9353   -0.0553 H         1 <0>         0.1296
     24 H4         -0.9358   -0.5395    0.0019 H         1 <0>         0.1274
     25 H5          0.2042   -2.3955    0.8558 H         1 <0>         0.1288
     26 H6          0.5969   -2.5801   -0.8561 H         1 <0>         0.1099
     27 H7          3.5249   -5.0475   -1.3762 H         1 <0>         0.1348
     28 H8          5.9043   -2.4567   -3.7999 H         1 <0>         0.1287
     29 H9          5.2791   -0.5292   -2.3967 H         1 <0>         0.1289
     30 H10         6.1664   -4.8592   -3.9217 H         1 <0>         0.0751
     31 H11         5.1729   -5.9410   -2.9161 H         1 <0>         0.0749
@<TRIPOS>BOND
     1    1    6 ar
     2    1    2 ar
     3    1   21 1
     4    2    3 ar
     5    2   22 1
     6    3    4 ar
     7    3   23 1
     8    4   15 1
     9    4    5 ar
    10    5    6 ar
    11    5    7 1
    12    6   24 1
    13    7    8 1
    14    7   25 1
    15    7   26 1
    16    8    9 1
    17    9   14 ar
    18    9   10 ar
    19   10   11 ar
    20   10   27 1
    21   11   12 ar
    22   11   17 1
    23   12   13 ar
    24   12   28 1
    25   13   14 ar
    26   13   29 1
    27   14   15 1
    28   15   16 2
    29   17   18 1
    30   17   30 1
    31   17   31 1
    32   18   19 2
    33   18   20 1
@<TRIPOS>MOLECULE
CHEMBL61955
   42    45     0     0     0
SMALL
USER_CHARGES

@<TRIPOS>ATOM
      1 C1         -0.0178    1.4608    0.0101 C.3       1 <0>         0.1131
      2 N1          0.0021   -0.0041    0.0020 N.am      1 <0>        -0.5857
      3 C2          0.0060   -0.6866   -1.1617 C.2       1 <0>         0.7106
      4 O1         -0.0058   -0.0607   -2.2040 O.2       1 <0>        -0.5693
      5 N2          0.0229   -2.0248   -1.2170 N.am      1 <0>        -0.6555
      6 C3          0.0341   -2.8406   -0.0852 C.ar      1 <0>         0.2426
      7 C4          0.0483   -4.2218   -0.2038 C.ar      1 <0>        -0.1764
      8 C5          0.0579   -5.0125    0.9368 C.ar      1 <0>         0.2833
      9 C6          0.0541   -4.4231    2.1954 C.ar      1 <0>        -0.0931
     10 C7          0.0414   -3.0450    2.3131 C.ar      1 <0>         0.0243
     11 C8          0.0314   -2.2606    1.1826 C.ar      1 <0>        -0.1152
     12 C9          0.0242   -0.7586    1.2571 C.3       1 <0>         0.3507
     13 C10        -1.1582   -0.3316    2.0890 C.2       1 <0>         0.4589
     14 O2         -2.4575   -0.5071    1.7987 O.3       1 <0>        -0.6157
     15 N3         -0.6590    0.2448    3.1514 N.2       1 <0>        -0.6601
     16 C11         0.6809    0.2612    3.1429 C.2       1 <0>         0.6625
     17 O3          1.3609    0.7462    4.0280 O.2       1 <0>        -0.5717
     18 N4          1.1872   -0.3234    2.0368 N.am      1 <0>        -0.7719
     19 N5          0.0632   -5.2698    3.4096 N.pl3     1 <0>         0.0475
     20 O4          0.0599   -4.7568    4.5043 O.2       1 <0>        -0.1779
     21 O5          0.0739   -6.4743    3.3065 O.3       1 <0>        -0.1422
     22 N6          0.0710   -6.4042    0.8194 N.pl3     1 <0>        -0.6745
     23 C12        -1.1835   -7.1705    0.7519 C.3       1 <0>         0.1108
     24 C13        -1.1099   -8.1130   -0.4548 C.3       1 <0>         0.0496
     25 O6          0.0970   -8.8759   -0.3833 O.3       1 <0>        -0.3790
     26 C14         1.2902   -8.0911   -0.4479 C.3       1 <0>         0.0496
     27 C15         1.3396   -7.1470    0.7535 C.3       1 <0>         0.1120
     28 H1          1.0048    1.8381    0.0023 H         1 <0>         0.0585
     29 H2         -0.5450    1.8219   -0.8730 H         1 <0>         0.0847
     30 H3         -0.5280    1.8123    0.9069 H         1 <0>         0.0796
     31 H4          0.0272   -2.4488   -2.0894 H         1 <0>         0.4260
     32 H5          0.0515   -4.6813   -1.1812 H         1 <0>         0.1519
     33 H6          0.0389   -2.5854    3.2904 H         1 <0>         0.1601
     34 H7          2.1231   -0.4330    1.8064 H         1 <0>         0.4078
     35 H8         -1.3078   -7.7524    1.6652 H         1 <0>         0.0751
     36 H9         -2.0248   -6.4877    0.6337 H         1 <0>         0.0768
     37 H10        -1.9672   -8.7861   -0.4439 H         1 <0>         0.1013
     38 H11        -1.1170   -7.5281   -1.3746 H         1 <0>         0.0513
     39 H12         2.1596   -8.7483   -0.4320 H         1 <0>         0.1006
     40 H13         1.2919   -7.5061   -1.3676 H         1 <0>         0.0504
     41 H14         2.1682   -6.4486    0.6363 H         1 <0>         0.0742
     42 H15         1.4736   -7.7265    1.6669 H         1 <0>         0.0743
@<TRIPOS>BOND
     1    1    2 1
     2    1   28 1
     3    1   29 1
     4    1   30 1
     5    2   12 1
     6    2    3 am
     7    3    4 2
     8    3    5 am
     9    5    6 1
    10    5   31 1
    11    6   11 ar
    12    6    7 ar
    13    7    8 ar
    14    7   32 1
    15    8    9 ar
    16    8   22 1
    17    9   10 ar
    18    9   19 1
    19   10   11 ar
    20   10   33 1
    21   11   12 1
    22   12   18 1
    23   12   13 1
    24   13   14 1
    25   13   15 2
    26   15   16 1
    27   16   17 2
    28   16   18 am
    29   18   34 1
    30   19   20 2
    31   19   21 1
    32   22   27 1
    33   22   23 1
    34   23   24 1
    35   23   35 1
    36   23   36 1
    37   24   25 1
    38   24   37 1
    39   24   38 1
    40   25   26 1
    41   26   27 1
    42   26   39 1
    43   26   40 1
    44   27   41 1
    45   27   42 1
@<TRIPOS>MOLECULE
CHEMBL61955__1
   43    46     0     0     0
SMALL
USER_CHARGES

@<TRIPOS>ATOM
      1 C1         -0.0178    1.4608    0.0101 C.3       1 <0>         0.1012
      2 N1          0.0021   -0.0041    0.0020 N.am      1 <0>        -0.5995
      3 C2          0.0060   -0.6863   -1.1617 C.2       1 <0>         0.7150
      4 O1         -0.0062   -0.0602   -2.2039 O.2       1 <0>        -0.5367
      5 N2          0.0233   -2.0245   -1.2174 N.am      1 <0>        -0.6521
      6 C3          0.0347   -2.8404   -0.0857 C.ar      1 <0>         0.2580
      7 C4          0.0485   -4.2216   -0.2046 C.ar      1 <0>        -0.1696
      8 C5          0.0578   -5.0126    0.9358 C.ar      1 <0>         0.3075
      9 C6          0.0535   -4.4234    2.1946 C.ar      1 <0>        -0.0911
     10 C7          0.0409   -3.0453    2.3125 C.ar      1 <0>         0.0250
     11 C8          0.0317   -2.2607    1.1822 C.ar      1 <0>        -0.1646
     12 C9          0.0242   -0.7585    1.2574 C.3       1 <0>         0.3960
     13 C10        -1.1620   -0.3339    2.0860 C.2       1 <0>         0.5248
     14 O2         -2.3353   -0.4924    1.8250 O.2       1 <0>        -0.4283
     15 N3         -0.6403    0.2599    3.1804 N.am      1 <0>        -0.6784
     16 C11         0.6983    0.2637    3.1476 C.2       1 <0>         0.7068
     17 O3          1.3948    0.7418    4.0213 O.2       1 <0>        -0.5135
     18 N4          1.1863   -0.3233    2.0367 N.am      1 <0>        -0.7238
     19 N5          0.0620   -5.2703    3.4086 N.pl3     1 <0>         0.0415
     20 O4          0.0583   -4.7575    4.5034 O.2       1 <0>        -0.1751
     21 O5          0.0727   -6.4748    3.3053 O.3       1 <0>        -0.1221
     22 N6          0.0710   -6.4043    0.8182 N.pl3     1 <0>        -0.6795
     23 C12        -1.1834   -7.1706    0.7501 C.3       1 <0>         0.1098
     24 C13        -1.1094   -8.1129   -0.4568 C.3       1 <0>         0.0488
     25 O6          0.0975   -8.8757   -0.3851 O.3       1 <0>        -0.3749
     26 C14         1.2907   -8.0908   -0.4491 C.3       1 <0>         0.0488
     27 C15         1.3396   -7.1469    0.7526 C.3       1 <0>         0.1104
     28 H1          1.0048    1.8381    0.0023 H         1 <0>         0.0751
     29 H2         -0.5450    1.8219   -0.8730 H         1 <0>         0.1005
     30 H3         -0.5280    1.8123    0.9069 H         1 <0>         0.0720
     31 H4          0.0278   -2.4484   -2.0899 H         1 <0>         0.4358
     32 H5          0.0517   -4.6809   -1.1821 H         1 <0>         0.1618
     33 H6          0.0379   -2.5860    3.2899 H         1 <0>         0.1587
     34 H7         -1.1692    0.6371    3.9008 H         1 <0>         0.4414
     35 H8          2.1203   -0.4352    1.8003 H         1 <0>         0.4458
     36 H9         -1.3081   -7.7527    1.6632 H         1 <0>         0.0795
     37 H10        -2.0248   -6.4878    0.6317 H         1 <0>         0.0764
     38 H11        -1.9667   -8.7859   -0.4463 H         1 <0>         0.1049
     39 H12        -1.1162   -7.5278   -1.3765 H         1 <0>         0.0523
     40 H13         2.1601   -8.7480   -0.4330 H         1 <0>         0.1049
     41 H14         1.2927   -7.5057   -1.3687 H         1 <0>         0.0517
     42 H15         2.1683   -6.4485    0.6358 H         1 <0>         0.0758
     43 H16         1.4733   -7.7266    1.6659 H         1 <0>         0.0791
@<TRIPOS>BOND
     1    1    2 1
     2    1   28 1
     3    1   29 1
     4    1   30 1
     5    2   12 1
     6    2    3 am
     7    3    4 2
     8    3    5 am
     9    5    6 1
    10    5   31 1
    11    6   11 ar
    12    6    7 ar
    13    7    8 ar
    14    7   32 1
    15    8    9 ar
    16    8   22 1
    17    9   10 ar
    18    9   19 1
    19   10   11 ar
    20   10   33 1
    21   11   12 1
    22   12   18 1
    23   12   13 1
    24   13   14 2
    25   13   15 am
    26   15   16 am
    27   15   34 1
    28   16   17 2
    29   16   18 am
    30   18   35 1
    31   19   20 2
    32   19   21 1
    33   22   27 1
    34   22   23 1
    35   23   24 1
    36   23   36 1
    37   23   37 1
    38   24   25 1
    39   24   38 1
    40   24   39 1
    41   25   26 1
    42   26   27 1
    43   26   40 1
    44   26   41 1
    45   27   42 1
    46   27   43 1
@<TRIPOS>MOLECULE
CHEMBL61955__2
   42    45     0     0     0
SMALL
USER_CHARGES

@<TRIPOS>ATOM
      1 C1         -0.0178    1.4608    0.0101 C.3       1 <0>         0.1110
      2 N1          0.0021   -0.0041    0.0020 N.am      1 <0>        -0.5861
      3 C2          0.0059   -0.6866   -1.1617 C.2       1 <0>         0.7110
      4 O1         -0.0088   -0.0607   -2.2040 O.2       1 <0>        -0.5693
      5 N2          0.0258   -2.0247   -1.2170 N.am      1 <0>        -0.6555
      6 C3          0.0472   -2.8404   -0.0853 C.ar      1 <0>         0.2428
      7 C4          0.0699   -4.2215   -0.2039 C.ar      1 <0>        -0.1765
      8 C5          0.0923   -5.0120    0.9366 C.ar      1 <0>         0.2834
      9 C6          0.0913   -4.4226    2.1953 C.ar      1 <0>        -0.0932
     10 C7          0.0672   -3.0446    2.3129 C.ar      1 <0>         0.0243
     11 C8          0.0454   -2.2604    1.1826 C.ar      1 <0>        -0.1154
     12 C9          0.0242   -0.7586    1.2571 C.3       1 <0>         0.3509
     13 C10         1.2099   -0.2990    2.0668 C.2       1 <0>         0.4600
     14 O2          2.5079   -0.4382    1.7518 O.3       1 <0>        -0.6161
     15 N3          0.7151    0.2637    3.1385 N.2       1 <0>        -0.6592
     16 C11        -0.6247    0.2432    3.1552 C.2       1 <0>         0.6617
     17 O3         -1.3011    0.7092    4.0531 O.2       1 <0>        -0.5718
     18 N4         -1.1354   -0.3554    2.0586 N.am      1 <0>        -0.7729
     19 N5          0.1154   -5.2691    3.4094 N.pl3     1 <0>         0.0476
     20 O4          0.1145   -4.7560    4.5041 O.2       1 <0>        -0.1780
     21 O5          0.1360   -6.4735    3.3062 O.3       1 <0>        -0.1422
     22 N6          0.1154   -6.4036    0.8193 N.pl3     1 <0>        -0.6745
     23 C12        -1.1334   -7.1796    0.7591 C.3       1 <0>         0.1122
     24 C13        -1.0596   -8.1216   -0.4481 C.3       1 <0>         0.0495
     25 O6          0.1536   -8.8751   -0.3836 O.3       1 <0>        -0.3790
     26 C14         1.3403   -8.0811   -0.4552 C.3       1 <0>         0.0498
     27 C15         1.3894   -7.1365    0.7459 C.3       1 <0>         0.1107
     28 H1          1.0048    1.8381    0.0023 H         1 <0>         0.0653
     29 H2         -0.5450    1.8219   -0.8730 H         1 <0>         0.0834
     30 H3         -0.5280    1.8123    0.9069 H         1 <0>         0.0764
     31 H4          0.0249   -2.4488   -2.0894 H         1 <0>         0.4260
     32 H5          0.0697   -4.6810   -1.1813 H         1 <0>         0.1519
     33 H6          0.0656   -2.5851    3.2903 H         1 <0>         0.1601
     34 H7         -2.0721   -0.4897    1.8453 H         1 <0>         0.4080
     35 H8         -1.2479   -7.7624    1.6730 H         1 <0>         0.0745
     36 H9         -1.9807   -6.5034    0.6457 H         1 <0>         0.0742
     37 H10        -1.9116   -8.8013   -0.4321 H         1 <0>         0.1003
     38 H11        -1.0765   -7.5368   -1.3678 H         1 <0>         0.0508
     39 H12         2.2148   -8.7316   -0.4443 H         1 <0>         0.1016
     40 H13         1.3321   -7.4962   -1.3749 H         1 <0>         0.0509
     41 H14         2.2118   -6.4317    0.6239 H         1 <0>         0.0768
     42 H15         1.5332   -7.7149    1.6586 H         1 <0>         0.0748
@<TRIPOS>BOND
     1    1    2 1
     2    1   28 1
     3    1   29 1
     4    1   30 1
     5    2   12 1
     6    2    3 am
     7    3    4 2
     8    3    5 am
     9    5    6 1
    10    5   31 1
    11    6   11 ar
    12    6    7 ar
    13    7    8 ar
    14    7   32 1
    15    8    9 ar
    16    8   22 1
    17    9   10 ar
    18    9   19 1
    19   10   11 ar
    20   10   33 1
    21   11   12 1
    22   12   18 1
    23   12   13 1
    24   13   14 1
    25   13   15 2
    26   15   16 1
    27   16   17 2
    28   16   18 am
    29   18   34 1
    30   19   20 2
    31   19   21 1
    32   22   27 1
    33   22   23 1
    34   23   24 1
    35   23   35 1
    36   23   36 1
    37   24   25 1
    38   24   37 1
    39   24   38 1
    40   25   26 1
    41   26   27 1
    42   26   39 1
    43   26   40 1
    44   27   41 1
    45   27   42 1
@<TRIPOS>MOLECULE
CHEMBL61955__3
   43    46     0     0     0
SMALL
USER_CHARGES

@<TRIPOS>ATOM
      1 C1         -0.0178    1.4608    0.0101 C.3       1 <0>         0.0961
      2 N1          0.0021   -0.0041    0.0020 N.am      1 <0>        -0.5994
      3 C2          0.0059   -0.6863   -1.1617 C.2       1 <0>         0.7151
      4 O1         -0.0080   -0.0602   -2.2039 O.2       1 <0>        -0.5367
      5 N2          0.0249   -2.0245   -1.2174 N.am      1 <0>        -0.6522
      6 C3          0.0466   -2.8402   -0.0858 C.ar      1 <0>         0.2580
      7 C4          0.0695   -4.2213   -0.2047 C.ar      1 <0>        -0.1697
      8 C5          0.0927   -5.0121    0.9357 C.ar      1 <0>         0.3076
      9 C6          0.0922   -4.4228    2.1944 C.ar      1 <0>        -0.0912
     10 C7          0.0681   -3.0449    2.3123 C.ar      1 <0>         0.0251
     11 C8          0.0455   -2.2605    1.1821 C.ar      1 <0>        -0.1643
     12 C9          0.0242   -0.7585    1.2574 C.3       1 <0>         0.3958
     13 C10         1.2137   -0.3012    2.0637 C.2       1 <0>         0.5259
     14 O2          2.3858   -0.4271    1.7805 O.2       1 <0>        -0.4287
     15 N3          0.6965    0.2783    3.1679 N.am      1 <0>        -0.6773
     16 C11        -0.6421    0.2453    3.1602 C.2       1 <0>         0.7061
     17 O3         -1.3350    0.7055    4.0463 O.2       1 <0>        -0.5134
     18 N4         -1.1345   -0.3552    2.0585 N.am      1 <0>        -0.7247
     19 N5          0.1169   -5.2695    3.4083 N.pl3     1 <0>         0.0414
     20 O4          0.1164   -4.7567    4.5032 O.2       1 <0>        -0.1752
     21 O5          0.1376   -6.4739    3.3050 O.3       1 <0>        -0.1221
     22 N6          0.1162   -6.4036    0.8180 N.pl3     1 <0>        -0.6796
     23 C12        -1.1324   -7.1800    0.7583 C.3       1 <0>         0.1105
     24 C13        -1.0589   -8.1217   -0.4491 C.3       1 <0>         0.0487
     25 O6          0.1545   -8.8749   -0.3854 O.3       1 <0>        -0.3749
     26 C14         1.3409   -8.0805   -0.4574 C.3       1 <0>         0.0488
     27 C15         1.3903   -7.1362    0.7439 C.3       1 <0>         0.1097
     28 H1          1.0048    1.8381    0.0023 H         1 <0>         0.0714
     29 H2         -0.5450    1.8219   -0.8730 H         1 <0>         0.1019
     30 H3         -0.5280    1.8123    0.9069 H         1 <0>         0.0790
     31 H4          0.0232   -2.4484   -2.0899 H         1 <0>         0.4358
     32 H5          0.0691   -4.6806   -1.1822 H         1 <0>         0.1617
     33 H6          0.0669   -2.5856    3.2898 H         1 <0>         0.1588
     34 H7          1.2283    0.6695    3.8785 H         1 <0>         0.4415
     35 H8         -2.0694   -0.4929    1.8397 H         1 <0>         0.4461
     36 H9         -1.2463   -7.7630    1.6722 H         1 <0>         0.0793
     37 H10        -1.9800   -6.5039    0.6455 H         1 <0>         0.0758
     38 H11        -1.9107   -8.8016   -0.4329 H         1 <0>         0.1046
     39 H12        -1.0765   -7.5368   -1.3687 H         1 <0>         0.0521
     40 H13         2.2157   -8.7308   -0.4471 H         1 <0>         0.1052
     41 H14         1.3321   -7.4954   -1.3770 H         1 <0>         0.0519
     42 H15         2.2126   -6.4311    0.6216 H         1 <0>         0.0764
     43 H16         1.5348   -7.7147    1.6563 H         1 <0>         0.0793
@<TRIPOS>BOND
     1    1    2 1
     2    1   28 1
     3    1   29 1
     4    1   30 1
     5    2   12 1
     6    2    3 am
     7    3    4 2
     8    3    5 am
     9    5    6 1
    10    5   31 1
    11    6   11 ar
    12    6    7 ar
    13    7    8 ar
    14    7   32 1
    15    8    9 ar
    16    8   22 1
    17    9   10 ar
    18    9   19 1
    19   10   11 ar
    20   10   33 1
    21   11   12 1
    22   12   18 1
    23   12   13 1
    24   13   14 2
    25   13   15 am
    26   15   16 am
    27   15   34 1
    28   16   17 2
    29   16   18 am
    30   18   35 1
    31   19   20 2
    32   19   21 1
    33   22   27 1
    34   22   23 1
    35   23   24 1
    36   23   36 1
    37   23   37 1
    38   24   25 1
    39   24   38 1
    40   24   39 1
    41   25   26 1
    42   26   27 1
    43   26   40 1
    44   26   41 1
    45   27   42 1
    46   27   43 1
@<TRIPOS>MOLECULE
CHEMBL19289
   36    39     0     0     0
SMALL
USER_CHARGES

@<TRIPOS>ATOM
      1 C1         -0.0165    1.3627    0.0095 C.ar      1 <0>        -0.0916
      2 C2          1.1654    2.0924    0.0022 C.ar      1 <0>        -0.1274
      3 C3          2.3861    1.4540   -0.0134 C.ar      1 <0>        -0.0552
      4 C4          2.4294    0.0605   -0.0213 C.ar      1 <0>        -0.1336
      5 C5          1.2244   -0.6786   -0.0133 C.ar      1 <0>        -0.0430
      6 C6          0.0021   -0.0041    0.0020 C.ar      1 <0>        -0.1002
      7 C7          1.3000   -2.1396   -0.0224 C.2       1 <0>         0.1257
      8 N1          2.4575   -2.7306   -0.0371 N.2       1 <0>        -0.1228
      9 N2          3.6626   -2.0276   -0.0452 N.am      1 <0>        -0.4417
     10 C8          3.6977   -0.6787   -0.0384 C.2       1 <0>         0.5197
     11 O1          4.7616   -0.0856   -0.0461 O.2       1 <0>        -0.5338
     12 C9          4.9232   -2.7737   -0.0618 C.3       1 <0>         0.2242
     13 C10         5.3696   -3.0372    1.3533 C.2       1 <0>         0.1617
     14 N3          5.0984   -4.0580    2.1203 N.2       1 <0>        -0.4600
     15 C11         5.5692   -4.1679    3.3792 C.ar      1 <0>         0.0274
     16 C12         5.3547   -5.2110    4.3117 C.ar      1 <0>        -0.0079
     17 C13         5.9338   -5.1244    5.5563 C.ar      1 <0>        -0.1728
     18 C14         6.7166   -4.0317    5.8952 C.ar      1 <0>         0.1300
     19 N4          6.9145   -3.0600    5.0235 N.ar      1 <0>        -0.4426
     20 C15         6.3839   -3.1010    3.8277 C.ar      1 <0>         0.0599
     21 S1          6.4110   -2.0352    2.4045 S.3       1 <0>         0.0337
     22 C16         0.0356   -2.9595   -0.0143 C.3       1 <0>        -0.1334
     23 C17         0.3870   -4.4249   -0.0262 C.2       1 <0>         0.4883
     24 O2          1.5559   -4.7714   -0.0401 O.co2     1 <0>        -0.6475
     25 O3         -0.4975   -5.2640   -0.0221 O.co2     1 <0>        -0.7056
     26 H1         -0.9631    1.8823    0.0259 H         1 <0>         0.1303
     27 H2          1.1269    3.1717    0.0083 H         1 <0>         0.1303
     28 H3          3.3010    2.0277   -0.0197 H         1 <0>         0.1386
     29 H4         -0.9242   -0.5594    0.0075 H         1 <0>         0.1406
     30 H5          4.7775   -3.7219   -0.5793 H         1 <0>         0.1404
     31 H6          5.6841   -2.1901   -0.5800 H         1 <0>         0.1258
     32 H7          4.7446   -6.0627    4.0497 H         1 <0>         0.1495
     33 H8          5.7770   -5.9144    6.2758 H         1 <0>         0.1481
     34 H9          7.1658   -3.9749    6.8757 H         1 <0>         0.1721
     35 H10        -0.5398   -2.7311    0.8829 H         1 <0>         0.0855
     36 H11        -0.5578   -2.7210   -0.8970 H         1 <0>         0.0873
@<TRIPOS>BOND
     1    1    6 ar
     2    1    2 ar
     3    1   26 1
     4    2    3 ar
     5    2   27 1
     6    3    4 ar
     7    3   28 1
     8    4   10 1
     9    4    5 ar
    10    5    6 ar
    11    5    7 1
    12    6   29 1
    13    7    8 2
    14    7   22 1
    15    8    9 1
    16    9   10 am
    17    9   12 1
    18   10   11 2
    19   12   13 1
    20   12   30 1
    21   12   31 1
    22   13   21 1
    23   13   14 2
    24   14   15 1
    25   15   20 ar
    26   15   16 ar
    27   16   17 ar
    28   16   32 1
    29   17   18 ar
    30   17   33 1
    31   18   19 ar
    32   18   34 1
    33   19   20 ar
    34   20   21 1
    35   22   23 1
    36   22   35 1
    37   22   36 1
    38   23   24 2
    39   23   25 1
@<TRIPOS>MOLECULE
CHEMBL284990
   32    33     0     0     0
SMALL
USER_CHARGES

@<TRIPOS>ATOM
      1 C1         -0.0187    1.5258    0.0104 C.3       1 <0>        -0.1469
      2 C2          0.0021   -0.0041    0.0020 C.3       1 <0>        -0.1448
      3 C3         -1.4333   -0.5336    0.0129 C.3       1 <0>         0.1132
      4 N1         -1.4134   -1.9985    0.0048 N.am      1 <0>        -0.5624
      5 C4         -1.4084   -2.7707   -1.1587 C.ar      1 <0>         0.1566
      6 C5         -1.4209   -2.3953   -2.5006 C.ar      1 <0>        -0.1223
      7 C6         -1.4128   -3.3569   -3.4895 C.ar      1 <0>        -0.1165
      8 C7         -1.3925   -4.7014   -3.1578 C.ar      1 <0>         0.0659
      9 C8         -1.3800   -5.0814   -1.8252 C.ar      1 <0>        -0.0949
     10 C9         -1.3877   -4.1218   -0.8378 C.ar      1 <0>        -0.1163
     11 C10        -1.3790   -4.2006    0.6715 C.3       1 <0>        -0.0498
     12 C11        -1.3922   -2.7536    1.1161 C.2       1 <0>         0.5269
     13 O1         -1.3870   -2.3514    2.2604 O.2       1 <0>        -0.4063
     14 C12        -0.1089   -4.8969    1.1645 C.3       1 <0>        -0.0545
     15 C13        -0.0521   -6.2610    0.6142 C.1       1 <0>         0.2542
     16 N2         -0.0082   -7.3137    0.1895 N.1       1 <0>        -0.4623
     17 C14        -0.1243   -4.9628    2.6699 C.2       1 <0>         0.4973
     18 O2          0.4312   -5.8829    3.2456 O.co2     1 <0>        -0.6827
     19 O3         -0.6922   -4.0960    3.3123 O.co2     1 <0>        -0.6346
     20 F1         -1.3855   -5.6393   -4.1302 F         1 <0>        -0.1407
     21 H1          1.0039    1.9031    0.0027 H         1 <0>         0.0573
     22 H2         -0.5459    1.8868   -0.8726 H         1 <0>         0.0537
     23 H3         -0.5289    1.8773    0.9072 H         1 <0>         0.0575
     24 H4          0.5123   -0.3556   -0.8948 H         1 <0>         0.0654
     25 H5          0.5293   -0.3651    0.8851 H         1 <0>         0.0724
     26 H6         -1.9435   -0.1821    0.9097 H         1 <0>         0.0899
     27 H7         -1.9605   -0.1726   -0.8702 H         1 <0>         0.0801
     28 H8         -1.4374   -1.3488   -2.7671 H         1 <0>         0.1331
     29 H9         -1.4225   -3.0598   -4.5278 H         1 <0>         0.1390
     30 H10        -1.3646   -6.1286   -1.5615 H         1 <0>         0.1372
     31 H11        -2.2658   -4.7220    1.0317 H         1 <0>         0.1260
     32 H12         0.7649   -4.3352    0.8343 H         1 <0>         0.1091
@<TRIPOS>BOND
     1    1    2 1
     2    1   21 1
     3    1   22 1
     4    1   23 1
     5    2    3 1
     6    2   24 1
     7    2   25 1
     8    3    4 1
     9    3   26 1
    10    3   27 1
    11    4   12 am
    12    4    5 1
    13    5   10 ar
    14    5    6 ar
    15    6    7 ar
    16    6   28 1
    17    7    8 ar
    18    7   29 1
    19    8    9 ar
    20    8   20 1
    21    9   10 ar
    22    9   30 1
    23   10   11 1
    24   11   12 1
    25   11   14 1
    26   11   31 1
    27   12   13 2
    28   14   15 1
    29   14   17 1
    30   14   32 1
    31   15   16 3
    32   17   18 2
    33   17   19 1
@<TRIPOS>MOLECULE
CHEMBL284990__1
   32    33     0     0     0
SMALL
USER_CHARGES

@<TRIPOS>ATOM
      1 C1         -0.0187    1.5258    0.0104 C.3       1 <0>        -0.1470
      2 C2          0.0021   -0.0041    0.0020 C.3       1 <0>        -0.1445
      3 C3         -1.4333   -0.5336    0.0129 C.3       1 <0>         0.1106
      4 N1         -1.4134   -1.9985    0.0048 N.am      1 <0>        -0.5496
      5 C4         -1.4084   -2.7707   -1.1587 C.ar      1 <0>         0.1330
      6 C5         -1.4209   -2.3953   -2.5006 C.ar      1 <0>        -0.1194
      7 C6         -1.4128   -3.3569   -3.4895 C.ar      1 <0>        -0.1209
      8 C7         -1.3925   -4.7014   -3.1578 C.ar      1 <0>         0.0736
      9 C8         -1.3800   -5.0814   -1.8252 C.ar      1 <0>        -0.0759
     10 C9         -1.3877   -4.1218   -0.8378 C.ar      1 <0>        -0.0885
     11 C10        -1.3790   -4.2006    0.6715 C.3       1 <0>        -0.0556
     12 C11        -1.3922   -2.7536    1.1161 C.2       1 <0>         0.5274
     13 O1         -1.3870   -2.3514    2.2604 O.2       1 <0>        -0.4916
     14 C12        -0.1089   -4.8969    1.1645 C.3       1 <0>        -0.0479
     15 C13        -0.1239   -4.9613    2.6350 C.1       1 <0>         0.2403
     16 N2         -0.1355   -5.0109    3.7698 N.1       1 <0>        -0.4494
     17 C14        -0.0507   -6.2934    0.6011 C.2       1 <0>         0.5158
     18 O2          1.0114   -6.7514    0.2155 O.co2     1 <0>        -0.6682
     19 O3         -1.0657   -6.9653    0.5310 O.co2     1 <0>        -0.6690
     20 F1         -1.3855   -5.6393   -4.1302 F         1 <0>        -0.1378
     21 H1          1.0039    1.9031    0.0027 H         1 <0>         0.0586
     22 H2         -0.5459    1.8868   -0.8726 H         1 <0>         0.0557
     23 H3         -0.5289    1.8773    0.9072 H         1 <0>         0.0562
     24 H4          0.5123   -0.3556   -0.8948 H         1 <0>         0.0696
     25 H5          0.5293   -0.3651    0.8851 H         1 <0>         0.0691
     26 H6         -1.9435   -0.1821    0.9097 H         1 <0>         0.0885
     27 H7         -1.9605   -0.1726   -0.8702 H         1 <0>         0.0846
     28 H8         -1.4374   -1.3488   -2.7671 H         1 <0>         0.1312
     29 H9         -1.4225   -3.0598   -4.5278 H         1 <0>         0.1390
     30 H10        -1.3646   -6.1286   -1.5615 H         1 <0>         0.1637
     31 H11        -2.2658   -4.7220    1.0317 H         1 <0>         0.1395
     32 H12         0.7649   -4.3352    0.8343 H         1 <0>         0.1093
@<TRIPOS>BOND
     1    1    2 1
     2    1   21 1
     3    1   22 1
     4    1   23 1
     5    2    3 1
     6    2   24 1
     7    2   25 1
     8    3    4 1
     9    3   26 1
    10    3   27 1
    11    4   12 am
    12    4    5 1
    13    5   10 ar
    14    5    6 ar
    15    6    7 ar
    16    6   28 1
    17    7    8 ar
    18    7   29 1
    19    8    9 ar
    20    8   20 1
    21    9   10 ar
    22    9   30 1
    23   10   11 1
    24   11   12 1
    25   11   14 1
    26   11   31 1
    27   12   13 2
    28   14   15 1
    29   14   17 1
    30   14   32 1
    31   15   16 3
    32   17   18 2
    33   17   19 1
@<TRIPOS>MOLECULE
CHEMBL284990__2
   32    33     0     0     0
SMALL
USER_CHARGES

@<TRIPOS>ATOM
      1 C1         -0.0622    1.5368   -0.0242 C.3       1 <0>        -0.1475
      2 C2         -0.0297    0.0072   -0.0212 C.3       1 <0>        -0.1411
      3 C3         -1.4611   -0.5333   -0.0136 C.3       1 <0>         0.1097
      4 N1         -1.4300   -1.9980   -0.0108 N.am      1 <0>        -0.5561
      5 C4         -1.4131   -2.7787   -1.1685 C.ar      1 <0>         0.1506
      6 C5         -1.4217   -2.4133   -2.5132 C.ar      1 <0>        -0.1181
      7 C6         -1.4011   -3.3820   -3.4949 C.ar      1 <0>        -0.1182
      8 C7         -1.3723   -4.7239   -3.1532 C.ar      1 <0>         0.0677
      9 C8         -1.3637   -5.0939   -1.8177 C.ar      1 <0>        -0.0928
     10 C9         -1.3837   -4.1272   -0.8375 C.ar      1 <0>        -0.1125
     11 C10        -1.3820   -4.1948    0.6723 C.3       1 <0>        -0.0519
     12 C11        -1.4085   -2.7447    1.1061 C.2       1 <0>         0.5303
     13 O1         -1.4123   -2.3341    2.2474 O.2       1 <0>        -0.4567
     14 C12        -2.6238   -4.9324    1.1772 C.3       1 <0>        -0.0535
     15 C13        -3.8268   -4.1511    0.8468 C.1       1 <0>         0.2418
     16 N2         -4.7552   -3.5482    0.5919 N.1       1 <0>        -0.4574
     17 C14        -2.5322   -5.1060    2.6714 C.2       1 <0>         0.5128
     18 O2         -3.5479   -5.2314    3.3339 O.co2     1 <0>        -0.6766
     19 O3         -1.4423   -5.1210    3.2176 O.co2     1 <0>        -0.6609
     20 F1         -1.3532   -5.6688   -4.1185 F         1 <0>        -0.1400
     21 H1          0.9575    1.9219   -0.0296 H         1 <0>         0.0584
     22 H2         -0.5876    1.8873   -0.9126 H         1 <0>         0.0548
     23 H3         -0.5796    1.8910    0.8674 H         1 <0>         0.0577
     24 H4          0.4877   -0.3470   -0.9128 H         1 <0>         0.0666
     25 H5          0.4957   -0.3433    0.8671 H         1 <0>         0.0705
     26 H6         -1.9785   -0.1791    0.8780 H         1 <0>         0.0891
     27 H7         -1.9865   -0.1828   -0.9020 H         1 <0>         0.0818
     28 H8         -1.4448   -1.3689   -2.7875 H         1 <0>         0.1323
     29 H9         -1.4079   -3.0927   -4.5354 H         1 <0>         0.1393
     30 H10        -1.3416   -6.1390   -1.5462 H         1 <0>         0.1446
     31 H11        -0.4753   -4.6813    1.0318 H         1 <0>         0.1521
     32 H12        -2.6839   -5.9110    0.7008 H         1 <0>         0.1232
@<TRIPOS>BOND
     1    1    2 1
     2    1   21 1
     3    1   22 1
     4    1   23 1
     5    2    3 1
     6    2   24 1
     7    2   25 1
     8    3    4 1
     9    3   26 1
    10    3   27 1
    11    4   12 am
    12    4    5 1
    13    5   10 ar
    14    5    6 ar
    15    6    7 ar
    16    6   28 1
    17    7    8 ar
    18    7   29 1
    19    8    9 ar
    20    8   20 1
    21    9   10 ar
    22    9   30 1
    23   10   11 1
    24   11   12 1
    25   11   14 1
    26   11   31 1
    27   12   13 2
    28   14   15 1
    29   14   17 1
    30   14   32 1
    31   15   16 3
    32   17   18 2
    33   17   19 1
@<TRIPOS>MOLECULE
CHEMBL284990__3
   32    33     0     0     0
SMALL
USER_CHARGES

@<TRIPOS>ATOM
      1 C1         -0.0187    1.5258    0.0104 C.3       1 <0>        -0.1476
      2 C2          0.0021   -0.0041    0.0020 C.3       1 <0>        -0.1430
      3 C3         -1.4333   -0.5336    0.0129 C.3       1 <0>         0.1098
      4 N1         -1.4134   -1.9985    0.0048 N.am      1 <0>        -0.5558
      5 C4         -1.4084   -2.7707   -1.1587 C.ar      1 <0>         0.1503
      6 C5         -1.4209   -2.3953   -2.5006 C.ar      1 <0>        -0.1167
      7 C6         -1.4128   -3.3569   -3.4895 C.ar      1 <0>        -0.1176
      8 C7         -1.3925   -4.7014   -3.1578 C.ar      1 <0>         0.0709
      9 C8         -1.3800   -5.0814   -1.8252 C.ar      1 <0>        -0.0954
     10 C9         -1.3877   -4.1218   -0.8378 C.ar      1 <0>        -0.1110
     11 C10        -1.3790   -4.2006    0.6715 C.3       1 <0>        -0.0548
     12 C11        -1.3922   -2.7536    1.1161 C.2       1 <0>         0.5373
     13 O1         -1.3870   -2.3514    2.2604 O.2       1 <0>        -0.4539
     14 C12        -2.6238   -4.9324    1.1772 C.3       1 <0>        -0.0512
     15 C13        -2.6476   -6.2977    0.6273 C.1       1 <0>         0.2485
     16 N2         -2.6661   -7.3513    0.2030 N.1       1 <0>        -0.4577
     17 C14        -2.5913   -4.9976    2.6824 C.2       1 <0>         0.5150
     18 O2         -3.6160   -4.8319    3.3220 O.co2     1 <0>        -0.6731
     19 O3         -1.5404   -5.2162    3.2606 O.co2     1 <0>        -0.6631
     20 F1         -1.3855   -5.6393   -4.1302 F         1 <0>        -0.1393
     21 H1          1.0039    1.9031    0.0027 H         1 <0>         0.0578
     22 H2         -0.5459    1.8868   -0.8726 H         1 <0>         0.0551
     23 H3         -0.5289    1.8773    0.9072 H         1 <0>         0.0582
     24 H4          0.5123   -0.3556   -0.8948 H         1 <0>         0.0663
     25 H5          0.5293   -0.3651    0.8851 H         1 <0>         0.0704
     26 H6         -1.9435   -0.1821    0.9097 H         1 <0>         0.0922
     27 H7         -1.9605   -0.1726   -0.8702 H         1 <0>         0.0837
     28 H8         -1.4374   -1.3488   -2.7671 H         1 <0>         0.1345
     29 H9         -1.4225   -3.0598   -4.5278 H         1 <0>         0.1406
     30 H10        -1.3646   -6.1286   -1.5615 H         1 <0>         0.1384
     31 H11        -0.4742   -4.6967    1.0227 H         1 <0>         0.1403
     32 H12        -3.5164   -4.3957    0.8559 H         1 <0>         0.1108
@<TRIPOS>BOND
     1    1    2 1
     2    1   21 1
     3    1   22 1
     4    1   23 1
     5    2    3 1
     6    2   24 1
     7    2   25 1
     8    3    4 1
     9    3   26 1
    10    3   27 1
    11    4   12 am
    12    4    5 1
    13    5   10 ar
    14    5    6 ar
    15    6    7 ar
    16    6   28 1
    17    7    8 ar
    18    7   29 1
    19    8    9 ar
    20    8   20 1
    21    9   10 ar
    22    9   30 1
    23   10   11 1
    24   11   12 1
    25   11   14 1
    26   11   31 1
    27   12   13 2
    28   14   15 1
    29   14   17 1
    30   14   32 1
    31   15   16 3
    32   17   18 2
    33   17   19 1
@<TRIPOS>MOLECULE
CHEMBL240725
   30    32     0     0     0
SMALL
USER_CHARGES

@<TRIPOS>ATOM
      1 C1         -0.0184    1.5028    0.0103 C.3       1 <0>        -0.1195
      2 C2          0.0021   -0.0041    0.0020 C.2       1 <0>        -0.0160
      3 C3          0.0093   -0.8791   -1.1765 C.ar      1 <0>        -0.1471
      4 C4          0.0001   -0.6591   -2.5533 C.ar      1 <0>        -0.0397
      5 C5          0.0110   -1.7351   -3.4145 C.ar      1 <0>        -0.0585
      6 C6          0.0310   -3.0307   -2.9150 C.ar      1 <0>        -0.0604
      7 C7          0.0399   -3.2603   -1.5562 C.ar      1 <0>        -0.1006
      8 C8          0.0296   -2.1896   -0.6712 C.ar      1 <0>         0.0882
      9 O1          0.0340   -2.0996    0.6744 O.3       1 <0>        -0.1320
     10 C9          0.0232   -0.8144    1.0690 C.2       1 <0>        -0.5335
     11 S1          0.0312   -0.2740    2.7460 S.o2      1 <0>         2.6382
     12 O2          0.6038   -1.3270    3.5093 O.2       1 <0>        -0.8850
     13 O3          0.5638    1.0434    2.7457 O.2       1 <0>        -0.8850
     14 C10        -1.6494   -0.1377    3.2574 C.2       1 <0>        -0.5021
     15 C11        -2.3678    1.0385    2.9860 C.2       1 <0>        -0.0344
     16 C12        -3.6689    1.1122    3.3954 C.2       1 <0>        -0.1736
     17 C13        -4.2116   -0.0037    4.0684 C.2       1 <0>         0.4845
     18 O4         -5.3696    0.0120    4.4542 O.2       1 <0>        -0.5022
     19 N1         -3.4385   -1.0859    4.2801 N.am      1 <0>        -0.4276
     20 H1         -3.8134   -1.8515    4.7428 H         1 <0>         0.4507
     21 N2         -2.2193   -1.1315    3.8805 N.2       1 <0>        -0.0758
     22 Cl1        -0.0010   -1.4698   -5.1301 Cl        1 <0>        -0.0512
     23 H2          1.0042    1.8801    0.0026 H         1 <0>         0.1048
     24 H3         -0.5455    1.8639   -0.8728 H         1 <0>         0.0891
     25 H4         -0.5286    1.8543    0.9071 H         1 <0>         0.0869
     26 H5         -0.0159    0.3482   -2.9425 H         1 <0>         0.1463
     27 H6          0.0395   -3.8669   -3.5985 H         1 <0>         0.1537
     28 H7          0.0548   -4.2724   -1.1795 H         1 <0>         0.1515
     29 H8         -1.9030    1.8638    2.4671 H         1 <0>         0.1718
     30 H9         -4.2627    1.9951    3.2105 H         1 <0>         0.1784
@<TRIPOS>BOND
     1    1    2 1
     2    1   23 1
     3    1   24 1
     4    1   25 1
     5    2   10 2
     6    2    3 1
     7    3    8 ar
     8    3    4 ar
     9    4    5 ar
    10    4   26 1
    11    5    6 ar
    12    5   22 1
    13    6    7 ar
    14    6   27 1
    15    7    8 ar
    16    7   28 1
    17    8    9 1
    18    9   10 1
    19   10   11 1
    20   11   12 2
    21   11   13 2
    22   11   14 1
    23   14   21 2
    24   14   15 1
    25   15   16 2
    26   15   29 1
    27   16   17 1
    28   16   30 1
    29   17   18 2
    30   17   19 am
    31   19   20 1
    32   19   21 1
@<TRIPOS>MOLECULE
CHEMBL240725__1
   29    31     0     0     0
SMALL
USER_CHARGES

@<TRIPOS>ATOM
      1 C1         -0.0184    1.5028    0.0103 C.3       1 <0>        -0.1119
      2 C2          0.0021   -0.0041    0.0020 C.2       1 <0>        -0.0434
      3 C3          0.0093   -0.8791   -1.1765 C.ar      1 <0>        -0.1402
      4 C4          0.0001   -0.6591   -2.5533 C.ar      1 <0>        -0.0431
      5 C5          0.0110   -1.7351   -3.4145 C.ar      1 <0>        -0.0611
      6 C6          0.0310   -3.0307   -2.9150 C.ar      1 <0>        -0.0712
      7 C7          0.0399   -3.2603   -1.5562 C.ar      1 <0>        -0.0975
      8 C8          0.0296   -2.1896   -0.6712 C.ar      1 <0>         0.0810
      9 O1          0.0340   -2.0996    0.6744 O.3       1 <0>        -0.1276
     10 C9          0.0232   -0.8144    1.0690 C.2       1 <0>        -0.5047
     11 S1          0.0312   -0.2740    2.7460 S.o2      1 <0>         2.6313
     12 O2          0.6038   -1.3270    3.5093 O.2       1 <0>        -0.9113
     13 O3          0.5638    1.0434    2.7457 O.2       1 <0>        -0.9210
     14 C10        -1.6494   -0.1377    3.2574 C.ar      1 <0>        -0.6244
     15 C11        -2.3325    1.0579    3.0853 C.ar      1 <0>        -0.0330
     16 C12        -3.6532    1.1193    3.5025 C.ar      1 <0>        -0.2320
     17 C13        -4.2121   -0.0238    4.0687 C.ar      1 <0>         0.3866
     18 O4         -5.5012   -0.0139    4.4921 O.3       1 <0>        -0.6621
     19 N1         -3.4807   -1.1199    4.1916 N.ar      1 <0>        -0.3386
     20 N2         -2.2600   -1.1729    3.7987 N.ar      1 <0>        -0.0890
     21 Cl1        -0.0010   -1.4698   -5.1301 Cl        1 <0>        -0.0633
     22 H1          1.0042    1.8801    0.0026 H         1 <0>         0.0956
     23 H2         -0.5455    1.8639   -0.8728 H         1 <0>         0.0812
     24 H3         -0.5286    1.8543    0.9071 H         1 <0>         0.0904
     25 H4         -0.0159    0.3482   -2.9425 H         1 <0>         0.1424
     26 H5          0.0395   -3.8669   -3.5985 H         1 <0>         0.1490
     27 H6          0.0548   -4.2724   -1.1795 H         1 <0>         0.1493
     28 H7         -1.8496    1.9151    2.6400 H         1 <0>         0.1363
     29 H8         -4.2305    2.0253    3.3922 H         1 <0>         0.1324
@<TRIPOS>BOND
     1    1    2 1
     2    1   22 1
     3    1   23 1
     4    1   24 1
     5    2   10 2
     6    2    3 1
     7    3    8 ar
     8    3    4 ar
     9    4    5 ar
    10    4   25 1
    11    5    6 ar
    12    5   21 1
    13    6    7 ar
    14    6   26 1
    15    7    8 ar
    16    7   27 1
    17    8    9 1
    18    9   10 1
    19   10   11 1
    20   11   12 2
    21   11   13 2
    22   11   14 1
    23   14   20 ar
    24   14   15 ar
    25   15   16 ar
    26   15   28 1
    27   16   17 ar
    28   16   29 1
    29   17   18 1
    30   17   19 ar
    31   19   20 ar
@<TRIPOS>MOLECULE
CHEMBL342786
   39    42     0     0     0
SMALL
USER_CHARGES

@<TRIPOS>ATOM
      1 C1         -0.0165    1.3620    0.0095 C.ar      1 <0>        -0.1562
      2 C2          1.1697    2.0834    0.0021 C.ar      1 <0>        -0.1020
      3 C3          2.3856    1.4362   -0.0134 C.ar      1 <0>        -0.1346
      4 C4          2.4281    0.0456   -0.0212 C.ar      1 <0>         0.1006
      5 C5          1.2234   -0.6807   -0.0132 C.ar      1 <0>        -0.1123
      6 C6          0.0021   -0.0041    0.0020 C.ar      1 <0>        -0.0633
      7 C7          1.6036   -2.0953   -0.0245 C.2       1 <0>        -0.1570
      8 C8          2.9451   -2.1410   -0.0380 C.2       1 <0>         0.0568
      9 N1          3.4551   -0.8713   -0.0363 N.pl3     1 <0>        -0.5860
     10 H1          4.3995   -0.6501   -0.0442 H         1 <0>         0.4151
     11 C9          3.7676   -3.4037   -0.0533 C.3       1 <0>         0.1970
     12 N2          4.1214   -3.7393   -1.4348 N.am      1 <0>        -0.4367
     13 C10         5.2677   -3.2538   -1.9557 C.2       1 <0>         0.5197
     14 O1          6.0012   -2.5456   -1.2892 O.2       1 <0>        -0.5510
     15 C11         5.6142   -3.5958   -3.3407 C.ar      1 <0>        -0.1353
     16 C12         6.7812   -3.1323   -3.9467 C.ar      1 <0>        -0.0572
     17 C13         7.0533   -3.4872   -5.2497 C.ar      1 <0>        -0.1285
     18 C14         6.1786   -4.2985   -5.9611 C.ar      1 <0>        -0.0923
     19 C15         5.0288   -4.7644   -5.3872 C.ar      1 <0>        -0.1006
     20 C16         4.7268   -4.4217   -4.0679 C.ar      1 <0>        -0.0418
     21 C17         3.5102   -4.8938   -3.4066 C.2       1 <0>         0.1219
     22 N3          3.2671   -4.5569   -2.1750 N.2       1 <0>        -0.1239
     23 C18         2.5416   -5.7758   -4.1516 C.3       1 <0>        -0.1329
     24 C19         1.3816   -6.1192   -3.2530 C.2       1 <0>         0.4901
     25 O2          1.3448   -5.6877   -2.1133 O.co2     1 <0>        -0.6518
     26 O3          0.4799   -6.8285   -3.6657 O.co2     1 <0>        -0.7045
     27 H2         -0.9613    1.8849    0.0259 H         1 <0>         0.1190
     28 H3          1.1388    3.1630    0.0081 H         1 <0>         0.1206
     29 H4          3.3028    2.0064   -0.0198 H         1 <0>         0.1154
     30 H5         -0.9246   -0.5587    0.0082 H         1 <0>         0.1225
     31 H6          0.9320   -2.9411   -0.0220 H         1 <0>         0.1575
     32 H7          4.6771   -3.2519    0.5280 H         1 <0>         0.0992
     33 H8          3.1899   -4.2190    0.3821 H         1 <0>         0.1246
     34 H9          7.4654   -2.5006   -3.3997 H         1 <0>         0.1362
     35 H10         7.9560   -3.1306   -5.7232 H         1 <0>         0.1295
     36 H11         6.4099   -4.5646   -6.9819 H         1 <0>         0.1301
     37 H12         4.3573   -5.3945   -5.9516 H         1 <0>         0.1406
     38 H13         2.1751   -5.2497   -5.0330 H         1 <0>         0.0857
     39 H14         3.0466   -6.6916   -4.4589 H         1 <0>         0.0860
@<TRIPOS>BOND
     1    1    6 ar
     2    1    2 ar
     3    1   27 1
     4    2    3 ar
     5    2   28 1
     6    3    4 ar
     7    3   29 1
     8    4    9 1
     9    4    5 ar
    10    5    6 ar
    11    5    7 1
    12    6   30 1
    13    7    8 2
    14    7   31 1
    15    8    9 1
    16    8   11 1
    17    9   10 1
    18   11   12 1
    19   11   32 1
    20   11   33 1
    21   12   22 1
    22   12   13 am
    23   13   14 2
    24   13   15 1
    25   15   20 ar
    26   15   16 ar
    27   16   17 ar
    28   16   34 1
    29   17   18 ar
    30   17   35 1
    31   18   19 ar
    32   18   36 1
    33   19   20 ar
    34   19   37 1
    35   20   21 1
    36   21   22 2
    37   21   23 1
    38   23   24 1
    39   23   38 1
    40   23   39 1
    41   24   25 2
    42   24   26 1
@<TRIPOS>MOLECULE
CHEMBL195065
   46    50     0     0     0
SMALL
USER_CHARGES

@<TRIPOS>ATOM
      1 C1         -0.0167    1.3791    0.0096 C.ar      1 <0>        -0.1301
      2 C2          1.1686    2.0922    0.0021 C.ar      1 <0>        -0.1201
      3 C3          2.3774    1.4264   -0.0129 C.ar      1 <0>        -0.1156
      4 C4          2.4024    0.0329   -0.0206 C.ar      1 <0>        -0.0254
      5 C5          1.2050   -0.6804   -0.0130 C.ar      1 <0>        -0.1146
      6 C6          0.0021   -0.0041    0.0020 C.ar      1 <0>        -0.1162
      7 C7          3.6983   -0.6883   -0.0373 C.ar      1 <0>        -0.0488
      8 C8          4.8964    0.0344   -0.0395 C.ar      1 <0>        -0.1343
      9 C9          6.0948   -0.6160   -0.0543 C.ar      1 <0>        -0.0798
     10 C10         6.1298   -2.0133   -0.0674 C.ar      1 <0>        -0.0898
     11 C11         4.9303   -2.7501   -0.0654 C.ar      1 <0>         0.1160
     12 C12         3.7154   -2.0773   -0.0449 C.ar      1 <0>        -0.0924
     13 N1          5.2730   -4.0843   -0.0806 N.pl3     1 <0>        -0.4342
     14 C13         6.6348   -4.2142   -0.0921 C.2       1 <0>         0.1122
     15 C14         7.2108   -3.0010   -0.0850 C.2       1 <0>        -0.2179
     16 C15         8.6896   -2.7110   -0.0943 C.3       1 <0>         0.0458
     17 C16         9.1701   -2.5054    1.3191 C.2       1 <0>         0.1498
     18 N2          9.6275   -3.4012    2.1443 N.2       1 <0>        -0.5142
     19 C17        10.0299   -3.0886    3.3937 C.ar      1 <0>         0.1213
     20 C18        10.5465   -3.9199    4.4126 C.ar      1 <0>         0.1065
     21 C19        10.8995   -3.3905    5.6311 C.ar      1 <0>         0.1090
     22 C20        10.7613   -2.0334    5.8981 C.ar      1 <0>        -0.1567
     23 C21        10.2582   -1.1942    4.9198 C.ar      1 <0>         0.1902
     24 C22         9.9023   -1.7156    3.6973 C.ar      1 <0>        -0.2260
     25 S1          9.2434   -1.0639    2.1847 S.3       1 <0>         0.1611
     26 F1         10.1180    0.1273    5.1629 F         1 <0>        -0.1150
     27 F2         11.3907   -4.2064    6.5893 F         1 <0>        -0.1144
     28 F3         10.6940   -5.2439    4.1881 F         1 <0>        -0.1085
     29 C23         4.3211   -5.1979   -0.0835 C.3       1 <0>         0.0288
     30 C24         3.8894   -5.4860   -1.4983 C.2       1 <0>         0.4817
     31 O1          4.3355   -4.8226   -2.4189 O.co2     1 <0>        -0.6698
     32 O2          3.0940   -6.3825   -1.7224 O.co2     1 <0>        -0.6893
     33 H1         -0.9603    1.9042    0.0260 H         1 <0>         0.1180
     34 H2          1.1481    3.1719    0.0077 H         1 <0>         0.1199
     35 H3          3.3022    1.9841   -0.0191 H         1 <0>         0.1251
     36 H4          1.2185   -1.7603   -0.0193 H         1 <0>         0.1252
     37 H5         -0.9264   -0.5557    0.0079 H         1 <0>         0.1212
     38 H6          4.8719    1.1141   -0.0297 H         1 <0>         0.1205
     39 H7          7.0159   -0.0522   -0.0563 H         1 <0>         0.1157
     40 H8          2.7884   -2.6313   -0.0386 H         1 <0>         0.1192
     41 H9          7.1679   -5.1534   -0.1050 H         1 <0>         0.1641
     42 H10         9.2217   -3.5512   -0.5404 H         1 <0>         0.1114
     43 H11         8.8794   -1.8098   -0.6773 H         1 <0>         0.1051
     44 H12        11.0441   -1.6371    6.8621 H         1 <0>         0.1715
     45 H13         4.7964   -6.0833    0.3387 H         1 <0>         0.0897
     46 H14         3.4498   -4.9327    0.5153 H         1 <0>         0.0844
@<TRIPOS>BOND
     1    1    6 ar
     2    1    2 ar
     3    1   33 1
     4    2    3 ar
     5    2   34 1
     6    3    4 ar
     7    3   35 1
     8    4    5 ar
     9    4    7 1
    10    5    6 ar
    11    5   36 1
    12    6   37 1
    13    7   12 ar
    14    7    8 ar
    15    8    9 ar
    16    8   38 1
    17    9   10 ar
    18    9   39 1
    19   10   15 1
    20   10   11 ar
    21   11   12 ar
    22   11   13 1
    23   12   40 1
    24   13   14 1
    25   13   29 1
    26   14   15 2
    27   14   41 1
    28   15   16 1
    29   16   17 1
    30   16   42 1
    31   16   43 1
    32   17   25 1
    33   17   18 2
    34   18   19 1
    35   19   24 ar
    36   19   20 ar
    37   20   21 ar
    38   20   28 1
    39   21   22 ar
    40   21   27 1
    41   22   23 ar
    42   22   44 1
    43   23   24 ar
    44   23   26 1
    45   24   25 1
    46   29   30 1
    47   29   45 1
    48   29   46 1
    49   30   31 2
    50   30   32 1
@<TRIPOS>MOLECULE
CHEMBL364699
   46    50     0     0     0
SMALL
USER_CHARGES

@<TRIPOS>ATOM
      1 C1         -0.0835    1.2871   -0.0514 C.ar      1 <0>        -0.1118
      2 C2          1.0841    2.0222    0.0511 C.ar      1 <0>        -0.1183
      3 C3          2.3071    1.3837    0.0511 C.ar      1 <0>        -0.0831
      4 C4          2.3648   -0.0068   -0.0527 C.ar      1 <0>        -0.0338
      5 C5          1.1834   -0.7424   -0.1557 C.ar      1 <0>        -0.0958
      6 C6         -0.0332   -0.0916   -0.1545 C.ar      1 <0>        -0.1265
      7 C7          3.6723   -0.6978   -0.0538 C.2       1 <0>         0.1750
      8 C8          4.0329   -1.6907    0.7965 C.2       1 <0>        -0.2027
      9 C9          5.3971   -2.0796    0.4433 C.ar      1 <0>        -0.0927
     10 C10         6.2942   -3.0272    0.9450 C.ar      1 <0>        -0.0807
     11 C11         7.5330   -3.1524    0.3833 C.ar      1 <0>        -0.1488
     12 C12         7.9089   -2.3459   -0.6826 C.ar      1 <0>        -0.1115
     13 C13         7.0412   -1.4052   -1.1929 C.ar      1 <0>        -0.1125
     14 C14         5.7740   -1.2598   -0.6374 C.ar      1 <0>         0.1167
     15 N1          4.7074   -0.4359   -0.9216 N.pl3     1 <0>        -0.4275
     16 C15         4.6803    0.5704   -1.9859 C.3       1 <0>         0.0276
     17 C16         5.1832    1.8849   -1.4473 C.2       1 <0>         0.4855
     18 O1          5.5320    1.9730   -0.2824 O.co2     1 <0>        -0.6691
     19 O2          5.2414    2.8603   -2.1765 O.co2     1 <0>        -0.6880
     20 C17         3.1883   -2.2805    1.8964 C.3       1 <0>         0.0449
     21 C18         3.3480   -1.4575    3.1487 C.2       1 <0>         0.1461
     22 N2          2.5901   -0.4862    3.5669 N.2       1 <0>        -0.5022
     23 C19         2.8407    0.1779    4.7144 C.ar      1 <0>         0.1226
     24 C20         2.1354    1.2445    5.3152 C.ar      1 <0>         0.1101
     25 C21         2.5681    1.7838    6.5032 C.ar      1 <0>         0.1065
     26 C22         3.7026    1.3024    7.1461 C.ar      1 <0>        -0.1562
     27 C23         4.4142    0.2584    6.5819 C.ar      1 <0>         0.1886
     28 C24         3.9882   -0.2874    5.3930 C.ar      1 <0>        -0.2228
     29 S1          4.5431   -1.5917    4.3262 S.3       1 <0>         0.1581
     30 F1          5.5187   -0.2216    7.1941 F         1 <0>        -0.1161
     31 F2          1.8765    2.8036    7.0573 F         1 <0>        -0.1153
     32 F3          1.0286    1.7378    4.7179 F         1 <0>        -0.1076
     33 H1         -1.0385    1.7914   -0.0464 H         1 <0>         0.1184
     34 H2          1.0381    3.0983    0.1310 H         1 <0>         0.1211
     35 H3          3.2178    1.9586    0.1308 H         1 <0>         0.1392
     36 H4          1.2213   -1.8187   -0.2367 H         1 <0>         0.1226
     37 H5         -0.9482   -0.6597   -0.2342 H         1 <0>         0.1208
     38 H6          6.0090   -3.6577    1.7742 H         1 <0>         0.1139
     39 H7          8.2258   -3.8843    0.7716 H         1 <0>         0.1161
     40 H8          8.8919   -2.4569   -1.1160 H         1 <0>         0.1189
     41 H9          7.3438   -0.7825   -2.0218 H         1 <0>         0.1154
     42 H10         5.3182    0.2467   -2.8083 H         1 <0>         0.0856
     43 H11         3.6583    0.6920   -2.3450 H         1 <0>         0.0864
     44 H12         2.1418   -2.2788    1.5916 H         1 <0>         0.1083
     45 H13         3.5084   -3.3041    2.0911 H         1 <0>         0.1038
     46 H14         4.0263    1.7401    8.0788 H         1 <0>         0.1708
@<TRIPOS>BOND
     1    1    6 ar
     2    1    2 ar
     3    1   33 1
     4    2    3 ar
     5    2   34 1
     6    3    4 ar
     7    3   35 1
     8    4    5 ar
     9    4    7 1
    10    5    6 ar
    11    5   36 1
    12    6   37 1
    13    7   15 1
    14    7    8 2
    15    8    9 1
    16    8   20 1
    17    9   14 ar
    18    9   10 ar
    19   10   11 ar
    20   10   38 1
    21   11   12 ar
    22   11   39 1
    23   12   13 ar
    24   12   40 1
    25   13   14 ar
    26   13   41 1
    27   14   15 1
    28   15   16 1
    29   16   17 1
    30   16   42 1
    31   16   43 1
    32   17   18 2
    33   17   19 1
    34   20   21 1
    35   20   44 1
    36   20   45 1
    37   21   29 1
    38   21   22 2
    39   22   23 1
    40   23   28 ar
    41   23   24 ar
    42   24   25 ar
    43   24   32 1
    44   25   26 ar
    45   25   31 1
    46   26   27 ar
    47   26   46 1
    48   27   28 ar
    49   27   30 1
    50   28   29 1
@<TRIPOS>MOLECULE
CHEMBL371307
   26    27     0     0     0
SMALL
USER_CHARGES

@<TRIPOS>ATOM
      1 C1         -0.0167    1.3778    0.0096 C.ar      1 <0>        -0.0732
      2 C2          1.1704    2.0860    0.0021 C.ar      1 <0>        -0.1505
      3 C3          2.3791    1.4110   -0.0130 C.ar      1 <0>         0.1277
      4 C4          2.3979    0.0265   -0.0206 C.ar      1 <0>        -0.1151
      5 C5          1.2093   -0.6804   -0.0130 C.ar      1 <0>        -0.0003
      6 C6          0.0021   -0.0041    0.0020 C.ar      1 <0>        -0.1202
      7 Cl1         1.2317   -2.4162   -0.0225 Cl        1 <0>        -0.0277
      8 C7          3.7128   -0.7096   -0.0376 C.3       1 <0>        -0.5826
      9 S1          4.2573   -1.0140    1.6658 S.o2      1 <0>         2.5261
     10 O1          4.5933    0.2130    2.2989 O.2       1 <0>        -0.9398
     11 O2          3.3871   -1.9417    2.2994 O.2       1 <0>        -0.9143
     12 C8          5.7884   -1.8711    1.5053 C.ar      1 <0>        -0.6260
     13 C9          6.9781   -1.1605    1.4419 C.ar      1 <0>        -0.0339
     14 C10         8.1589   -1.8767    1.3157 C.ar      1 <0>        -0.2364
     15 C11         8.0764   -3.2654    1.2604 C.ar      1 <0>         0.3847
     16 N1          6.8937   -3.8558    1.3286 N.ar      1 <0>        -0.3444
     17 N2          5.8042   -3.1883    1.4509 N.ar      1 <0>        -0.0956
     18 O3          9.2037   -4.0105    1.1367 O.3       1 <0>        -0.6684
     19 F1          3.5395    2.1027   -0.0208 F         1 <0>        -0.1194
     20 H1         -0.9593    1.9047    0.0259 H         1 <0>         0.1467
     21 H2          1.1550    3.1658    0.0076 H         1 <0>         0.1476
     22 H3         -0.9260   -0.5564    0.0079 H         1 <0>         0.1467
     23 H4          3.5900   -1.6609   -0.5553 H         1 <0>         0.1545
     24 H5          4.4594   -0.1077   -0.5556 H         1 <0>         0.1481
     25 H6          6.9845   -0.0816    1.4891 H         1 <0>         0.1353
     26 H7          9.1127   -1.3729    1.2616 H         1 <0>         0.1302
@<TRIPOS>BOND
     1    1    6 ar
     2    1    2 ar
     3    1   20 1
     4    2    3 ar
     5    2   21 1
     6    3    4 ar
     7    3   19 1
     8    4    5 ar
     9    4    8 1
    10    5    6 ar
    11    5    7 1
    12    6   22 1
    13    8    9 1
    14    8   23 1
    15    8   24 1
    16    9   10 2
    17    9   11 2
    18    9   12 1
    19   12   13 ar
    20   12   17 ar
    21   13   14 ar
    22   13   25 1
    23   14   15 ar
    24   14   26 1
    25   15   18 1
    26   15   16 ar
    27   16   17 ar
@<TRIPOS>MOLECULE
CHEMBL7224
   41    44     0     0     0
SMALL
USER_CHARGES

@<TRIPOS>ATOM
      1 C1         -0.0187    1.5258    0.0104 C.3       1 <0>        -0.1469
      2 C2          0.0021   -0.0041    0.0020 C.3       1 <0>         0.0639
      3 O1         -1.3386   -0.4987    0.0122 O.3       1 <0>        -0.3707
      4 C3         -1.4971   -1.8379    0.0065 C.2       1 <0>         0.5369
      5 O2         -0.5231   -2.5653   -0.0067 O.2       1 <0>        -0.5358
      6 C4         -2.8441   -2.4167    0.0162 C.2       1 <0>        -0.4666
      7 C5         -3.1563   -3.7322    0.0181 C.2       1 <0>         0.2846
      8 C6         -4.6274   -3.8826    0.0298 C.2       1 <0>         0.5144
      9 O3         -5.2200   -4.9432    0.0344 O.2       1 <0>        -0.5159
     10 N1         -5.2123   -2.6710    0.0351 N.am      1 <0>        -0.6081
     11 C7         -4.1504   -1.6579    0.0328 C.3       1 <0>         0.1947
     12 C8         -6.6537   -2.4094    0.0467 C.3       1 <0>         0.2465
     13 C9         -7.3137   -3.0836   -1.1310 C.ar      1 <0>        -0.0943
     14 C10        -7.1477   -2.9401   -2.4922 C.ar      1 <0>        -0.0837
     15 C11        -7.9018   -3.7031   -3.3662 C.ar      1 <0>        -0.1183
     16 C12        -8.8234   -4.6110   -2.8765 C.ar      1 <0>        -0.1163
     17 C13        -8.9960   -4.7611   -1.5161 C.ar      1 <0>        -0.1000
     18 C14        -8.2387   -3.9947   -0.6284 C.ar      1 <0>        -0.0348
     19 C15        -8.2189   -3.9517    0.8547 C.ar      1 <0>        -0.0351
     20 C16        -7.2815   -3.0137    1.2788 C.ar      1 <0>        -0.0963
     21 C17        -7.0797   -2.7914    2.6244 C.ar      1 <0>        -0.0838
     22 C18        -7.8096   -3.5019    3.5610 C.ar      1 <0>        -0.1187
     23 C19        -8.7429   -4.4362    3.1495 C.ar      1 <0>        -0.1164
     24 C20        -8.9517   -4.6647    1.8052 C.ar      1 <0>        -0.1004
     25 O4         -2.2645   -4.7494    0.0100 O.3       1 <0>        -0.6130
     26 H1          1.0039    1.9031    0.0027 H         1 <0>         0.0685
     27 H2         -0.5459    1.8868   -0.8726 H         1 <0>         0.0613
     28 H3         -0.5289    1.8773    0.9072 H         1 <0>         0.0613
     29 H4          0.5123   -0.3556   -0.8948 H         1 <0>         0.0555
     30 H5          0.5293   -0.3651    0.8851 H         1 <0>         0.0555
     31 H6         -4.2150   -1.0424    0.9301 H         1 <0>         0.0559
     32 H7         -4.2326   -1.0338   -0.8571 H         1 <0>         0.0559
     33 H8         -6.8401   -1.3358    0.0187 H         1 <0>         0.1136
     34 H9         -6.4289   -2.2316   -2.8765 H         1 <0>         0.1240
     35 H10        -7.7709   -3.5893   -4.4322 H         1 <0>         0.1251
     36 H11        -9.4103   -5.2044   -3.5619 H         1 <0>         0.1236
     37 H12        -9.7169   -5.4708   -1.1380 H         1 <0>         0.1202
     38 H13        -6.3512   -2.0625    2.9477 H         1 <0>         0.1242
     39 H14        -7.6502   -3.3269    4.6147 H         1 <0>         0.1252
     40 H15        -9.3101   -4.9892    3.8835 H         1 <0>         0.1236
     41 H16        -9.6813   -5.3951    1.4882 H         1 <0>         0.1204
@<TRIPOS>BOND
     1    1    2 1
     2    1   26 1
     3    1   27 1
     4    1   28 1
     5    2    3 1
     6    2   29 1
     7    2   30 1
     8    3    4 1
     9    4    5 2
    10    4    6 1
    11    6   11 1
    12    6    7 2
    13    7    8 1
    14    7   25 1
    15    8    9 2
    16    8   10 am
    17   10   11 1
    18   10   12 1
    19   11   31 1
    20   11   32 1
    21   12   20 1
    22   12   13 1
    23   12   33 1
    24   13   18 ar
    25   13   14 ar
    26   14   15 ar
    27   14   34 1
    28   15   16 ar
    29   15   35 1
    30   16   17 ar
    31   16   36 1
    32   17   18 ar
    33   17   37 1
    34   18   19 1
    35   19   24 ar
    36   19   20 ar
    37   20   21 ar
    38   21   22 ar
    39   21   38 1
    40   22   23 ar
    41   22   39 1
    42   23   24 ar
    43   23   40 1
    44   24   41 1
@<TRIPOS>MOLECULE
CHEMBL282245
   36    38     0     0     0
SMALL
USER_CHARGES

@<TRIPOS>ATOM
      1 C1         -0.0178    1.4608    0.0101 C.3       1 <0>         0.0809
      2 N1          0.0021   -0.0041    0.0020 N.pl3     1 <0>        -1.0055
      3 C2          0.0241   -0.7433    1.2666 C.3       1 <0>         0.0897
      4 S1         -0.0004   -0.8243   -1.4366 S.o2      1 <0>         2.6986
      5 O1         -0.5312   -2.1147   -1.1675 O.2       1 <0>        -0.9488
      6 O2         -0.5723    0.0488   -2.4009 O.2       1 <0>        -0.9539
      7 C3          1.6818   -1.0594   -1.9051 C.ar      1 <0>        -0.7218
      8 C4          2.3248   -0.1051   -2.6796 C.ar      1 <0>         0.0338
      9 C5          3.6395   -0.2725   -3.0580 C.ar      1 <0>        -0.1669
     10 C6          4.3410   -1.4077   -2.6630 C.ar      1 <0>         0.2207
     11 C7          3.6877   -2.3682   -1.8751 C.ar      1 <0>        -0.2445
     12 C8          2.3584   -2.1885   -1.4967 C.ar      1 <0>         0.0736
     13 C9          4.4476   -3.5626   -1.4472 C.2       1 <0>         0.4398
     14 O3          3.9024   -4.5363   -0.9619 O.2       1 <0>        -0.4391
     15 C10         5.9121   -3.4994   -1.6465 C.ar      1 <0>        -0.2343
     16 C11         6.7558   -4.4323   -1.0556 C.ar      1 <0>         0.0029
     17 C12         8.1321   -4.3345   -1.2604 C.ar      1 <0>        -0.1530
     18 C13         8.6457   -3.2994   -2.0546 C.ar      1 <0>        -0.0225
     19 C14         7.8144   -2.3884   -2.6362 C.ar      1 <0>        -0.1497
     20 C15         6.4347   -2.4693   -2.4490 C.ar      1 <0>         0.1294
     21 O4          5.6241   -1.5720   -3.0413 O.3       1 <0>        -0.2236
     22 C16         9.0429   -5.3151   -0.6441 C.2       1 <0>         0.5223
     23 O5          8.5925   -6.2170    0.0487 O.co2     1 <0>        -0.6781
     24 O6         10.2494   -5.2272   -0.8252 O.co2     1 <0>        -0.6812
     25 H1          1.0048    1.8381    0.0023 H         1 <0>         0.0570
     26 H2         -0.5450    1.8219   -0.8730 H         1 <0>         0.0844
     27 H3         -0.5280    1.8123    0.9069 H         1 <0>         0.0787
     28 H4         -0.9979   -0.9406    1.5900 H         1 <0>         0.0632
     29 H5          0.5496   -1.6879    1.1262 H         1 <0>         0.0739
     30 H6          0.5371   -0.1514    2.0246 H         1 <0>         0.0758
     31 H7          1.7887    0.7795   -2.9901 H         1 <0>         0.1536
     32 H8          4.1261    0.4786   -3.6626 H         1 <0>         0.1528
     33 H9          1.8606   -2.9310   -0.8908 H         1 <0>         0.1564
     34 H10         6.3501   -5.2246   -0.4439 H         1 <0>         0.1492
     35 H11         9.7120   -3.2229   -2.2078 H         1 <0>         0.1476
     36 H12         8.2273   -1.5982   -3.2455 H         1 <0>         0.1385
@<TRIPOS>BOND
     1    1    2 1
     2    1   25 1
     3    1   26 1
     4    1   27 1
     5    2    3 1
     6    2    4 1
     7    3   28 1
     8    3   29 1
     9    3   30 1
    10    4    5 2
    11    4    6 2
    12    4    7 1
    13    7   12 ar
    14    7    8 ar
    15    8    9 ar
    16    8   31 1
    17    9   10 ar
    18    9   32 1
    19   10   21 1
    20   10   11 ar
    21   11   12 ar
    22   11   13 1
    23   12   33 1
    24   13   14 2
    25   13   15 1
    26   15   20 ar
    27   15   16 ar
    28   16   17 ar
    29   16   34 1
    30   17   18 ar
    31   17   22 1
    32   18   19 ar
    33   18   35 1
    34   19   20 ar
    35   19   36 1
    36   20   21 1
    37   22   23 2
    38   22   24 1
@<TRIPOS>MOLECULE
CHEMBL369911
   29    31     0     0     0
SMALL
USER_CHARGES

@<TRIPOS>ATOM
      1 C1         -0.0164    1.3567    0.0095 C.ar      1 <0>        -0.0992
      2 C2          1.1686    2.0905    0.0021 C.ar      1 <0>        -0.1300
      3 C3          2.3785    1.4675   -0.0131 C.ar      1 <0>        -0.0841
      4 C4          2.4375    0.0634   -0.0211 C.ar      1 <0>        -0.0793
      5 C5          3.6681   -0.6153   -0.0364 C.ar      1 <0>         0.0218
      6 C6          3.6865   -1.9761   -0.0434 C.ar      1 <0>        -0.6485
      7 C7          2.5015   -2.7098   -0.0357 C.ar      1 <0>        -0.0391
      8 C8          1.2917   -2.0868   -0.0209 C.ar      1 <0>        -0.1266
      9 C9          1.2327   -0.6827   -0.0133 C.ar      1 <0>        -0.0145
     10 C10         0.0021   -0.0041    0.0020 C.ar      1 <0>        -0.1205
     11 S1          5.2315   -2.8230   -0.0631 S.o2      1 <0>         2.6109
     12 O1          4.9835   -4.1075   -0.6179 O.2       1 <0>        -0.9485
     13 O2          6.1807   -1.9234   -0.6189 O.2       1 <0>        -0.9347
     14 C11         5.7051   -3.0818    1.6142 C.ar      1 <0>        -0.6234
     15 C12         5.3142   -4.2371    2.2752 C.ar      1 <0>        -0.0310
     16 C13         5.7099   -4.3984    3.5946 C.ar      1 <0>        -0.2362
     17 C14         6.4753   -3.3899    4.1737 C.ar      1 <0>         0.3852
     18 N1          6.7999   -2.3219    3.4624 N.ar      1 <0>        -0.3436
     19 N2          6.4356   -2.1801    2.2399 N.ar      1 <0>        -0.0973
     20 O3          6.8865   -3.5013    5.4620 O.3       1 <0>        -0.6686
     21 H1         -0.9633    1.8757    0.0259 H         1 <0>         0.1242
     22 H2          1.1260    3.1696    0.0083 H         1 <0>         0.1257
     23 H3          3.2884    2.0491   -0.0194 H         1 <0>         0.1346
     24 H4          4.5943   -0.0599   -0.0428 H         1 <0>         0.1527
     25 H5          2.5441   -3.7890   -0.0419 H         1 <0>         0.1412
     26 H6          0.3816   -2.6684   -0.0154 H         1 <0>         0.1342
     27 H7         -0.9241   -0.5595    0.0082 H         1 <0>         0.1292
     28 H8          4.7192   -4.9883    1.7773 H         1 <0>         0.1354
     29 H9          5.4326   -5.2788    4.1554 H         1 <0>         0.1300
@<TRIPOS>BOND
     1    1   10 ar
     2    1    2 ar
     3    1   21 1
     4    2    3 ar
     5    2   22 1
     6    3    4 ar
     7    3   23 1
     8    4    9 ar
     9    4    5 ar
    10    5    6 ar
    11    5   24 1
    12    6    7 ar
    13    6   11 1
    14    7    8 ar
    15    7   25 1
    16    8    9 ar
    17    8   26 1
    18    9   10 ar
    19   10   27 1
    20   11   12 2
    21   11   13 2
    22   11   14 1
    23   14   15 ar
    24   14   19 ar
    25   15   16 ar
    26   15   28 1
    27   16   17 ar
    28   16   29 1
    29   17   20 1
    30   17   18 ar
    31   18   19 ar
@<TRIPOS>MOLECULE
CHEMBL110030
   64    69     0     0     0
SMALL
USER_CHARGES

@<TRIPOS>ATOM
      1 C1         -0.0184    1.5028    0.0103 C.3       1 <0>        -0.1217
      2 C2          0.0021   -0.0041    0.0020 C.ar      1 <0>        -0.0376
      3 C3          0.0049   -0.6450   -1.2045 C.ar      1 <0>        -0.0953
      4 C4          0.0238   -2.0506   -1.2166 C.ar      1 <0>        -0.0108
      5 C5          0.0386   -2.6897    0.0217 C.ar      1 <0>        -0.1268
      6 C6          0.0587   -4.1306    0.1919 C.ar      1 <0>        -0.2291
      7 C7          0.0629   -4.8851   -0.9734 C.ar      1 <0>         0.2281
      8 C8          0.0481   -4.2293   -2.2187 C.ar      1 <0>         0.0737
      9 C9          0.0286   -2.8677   -2.3600 C.ar      1 <0>        -0.0182
     10 C10         0.0133   -2.2486   -3.7338 C.3       1 <0>        -0.0561
     11 C11         1.2644   -2.6802   -4.5016 C.3       1 <0>        -0.1507
     12 C12        -1.2338   -2.7129   -4.4887 C.3       1 <0>        -0.1514
     13 O1          0.0527   -4.9910   -3.3449 O.3       1 <0>        -0.4738
     14 O2          0.0816   -6.2388   -0.9125 O.3       1 <0>        -0.4726
     15 C13         0.0680   -4.2871    1.6434 C.2       1 <0>         0.5462
     16 O3          0.0856   -5.3419    2.2496 O.2       1 <0>        -0.4124
     17 O4          0.0540   -3.0467    2.1976 O.3       1 <0>        -0.2503
     18 C14         0.0361   -2.0732    1.2622 C.ar      1 <0>         0.1236
     19 C15         0.0229   -0.6770    1.2364 C.ar      1 <0>        -0.0130
     20 C16         0.0250    0.0904    2.5021 C.ar      1 <0>        -0.0128
     21 C17         1.2413    0.4779    3.0916 C.ar      1 <0>        -0.0376
     22 C18         1.3206    1.1860    4.2572 C.ar      1 <0>        -0.0953
     23 C19         0.1260    1.5483    4.9038 C.ar      1 <0>        -0.0109
     24 C20        -1.0633    1.1509    4.2959 C.ar      1 <0>        -0.1267
     25 C21        -1.1812    0.4382    3.1138 C.ar      1 <0>         0.1234
     26 O5         -2.4990    0.2681    2.8740 O.3       1 <0>        -0.2503
     27 C22        -3.2708    0.8379    3.8359 C.2       1 <0>         0.5463
     28 O6         -4.4871    0.8377    3.8713 O.2       1 <0>        -0.4124
     29 C23        -2.3827    1.4405    4.8259 C.ar      1 <0>        -0.2291
     30 C24        -2.4219    2.1589    6.0130 C.ar      1 <0>         0.2281
     31 C25        -1.2146    2.5547    6.6189 C.ar      1 <0>         0.0736
     32 C26         0.0220    2.2728    6.1035 C.ar      1 <0>        -0.0182
     33 C27         1.2647    2.7364    6.8189 C.3       1 <0>        -0.0561
     34 C28         1.2517    4.2625    6.9269 C.3       1 <0>        -0.1506
     35 C29         1.3033    2.1262    8.2215 C.3       1 <0>        -0.1514
     36 O7         -1.2803    3.2570    7.7812 O.3       1 <0>        -0.4738
     37 O8         -3.6100    2.4761    6.5825 O.3       1 <0>        -0.4727
     38 C30         2.5243    0.0915    2.4019 C.3       1 <0>        -0.1216
     39 H1          1.0042    1.8801    0.0026 H         1 <0>         0.0827
     40 H2         -0.5455    1.8639   -0.8728 H         1 <0>         0.0788
     41 H3         -0.5286    1.8543    0.9071 H         1 <0>         0.0702
     42 H4         -0.0074   -0.0846   -2.1277 H         1 <0>         0.1494
     43 H5         -0.0004   -1.1625   -3.6428 H         1 <0>         0.0881
     44 H6          1.2782   -3.7663   -4.5927 H         1 <0>         0.0788
     45 H7          1.2534   -2.2324   -5.4953 H         1 <0>         0.0626
     46 H8          2.1529   -2.3494   -3.9638 H         1 <0>         0.0548
     47 H9         -1.2201   -3.7990   -4.5798 H         1 <0>         0.0614
     48 H10        -2.1251   -2.4055   -3.9417 H         1 <0>         0.0582
     49 H11        -1.2448   -2.2651   -5.4824 H         1 <0>         0.0695
     50 H12        -0.8292   -5.2231   -3.6663 H         1 <0>         0.3882
     51 H13        -0.7963   -6.6436   -0.8903 H         1 <0>         0.4052
     52 H14         2.2789    1.4609    4.6725 H         1 <0>         0.1494
     53 H15         2.1453    2.4191    6.2603 H         1 <0>         0.0881
     54 H16         0.3712    4.5798    7.4855 H         1 <0>         0.0788
     55 H17         2.1506    4.5978    7.4443 H         1 <0>         0.0626
     56 H18         1.2242    4.6972    5.9277 H         1 <0>         0.0548
     57 H19         2.2021    2.4615    8.7390 H         1 <0>         0.0695
     58 H20         0.4227    2.4435    8.7801 H         1 <0>         0.0615
     59 H21         1.3125    1.0390    8.1446 H         1 <0>         0.0582
     60 H22        -1.2812    2.7047    8.5749 H         1 <0>         0.3882
     61 H23        -3.9371    1.8129    7.2054 H         1 <0>         0.4053
     62 H24         2.8119    0.8769    1.7029 H         1 <0>         0.0827
     63 H25         3.3110   -0.0396    3.1449 H         1 <0>         0.0788
     64 H26         2.3780   -0.8423    1.8590 H         1 <0>         0.0703
@<TRIPOS>BOND
     1    1    2 1
     2    1   39 1
     3    1   40 1
     4    1   41 1
     5    2   19 ar
     6    2    3 ar
     7    3    4 ar
     8    3   42 1
     9    4    9 ar
    10    4    5 ar
    11    5   18 ar
    12    5    6 ar
    13    6    7 ar
    14    6   15 1
    15    7    8 ar
    16    7   14 1
    17    8    9 ar
    18    8   13 1
    19    9   10 1
    20   10   11 1
    21   10   12 1
    22   10   43 1
    23   11   44 1
    24   11   45 1
    25   11   46 1
    26   12   47 1
    27   12   48 1
    28   12   49 1
    29   13   50 1
    30   14   51 1
    31   15   16 2
    32   15   17 1
    33   17   18 1
    34   18   19 ar
    35   19   20 1
    36   20   25 ar
    37   20   21 ar
    38   21   22 ar
    39   21   38 1
    40   22   23 ar
    41   22   52 1
    42   23   32 ar
    43   23   24 ar
    44   24   29 ar
    45   24   25 ar
    46   25   26 1
    47   26   27 1
    48   27   28 2
    49   27   29 1
    50   29   30 ar
    51   30   31 ar
    52   30   37 1
    53   31   32 ar
    54   31   36 1
    55   32   33 1
    56   33   34 1
    57   33   35 1
    58   33   53 1
    59   34   54 1
    60   34   55 1
    61   34   56 1
    62   35   57 1
    63   35   58 1
    64   35   59 1
    65   36   60 1
    66   37   61 1
    67   38   62 1
    68   38   63 1
    69   38   64 1
@<TRIPOS>MOLECULE
CHEMBL69938
   43    45     0     0     0
SMALL
USER_CHARGES

@<TRIPOS>ATOM
      1 C1          0.7328    1.4556   -0.5753 C.3       1 <0>        -0.1405
      2 C2          0.4987   -0.0441   -0.3829 C.3       1 <0>         0.0844
      3 H1          0.8781   -0.5887   -1.2475 H         1 <0>         0.0789
      4 C3         -1.0021   -0.3159   -0.2189 C.3       1 <0>        -0.1374
      5 C4         -1.2105   -1.8302   -0.1403 C.3       1 <0>         0.2068
      6 C5         -0.2406   -2.4256    0.8489 C.ar      1 <0>        -0.1990
      7 C6         -0.4963   -3.6914    1.3519 C.ar      1 <0>        -0.0316
      8 C7          0.3706   -4.2715    2.2565 C.ar      1 <0>        -0.0980
      9 C8          1.5062   -3.5845    2.6657 C.ar      1 <0>         0.1665
     10 C9          1.7630   -2.3194    2.1661 C.ar      1 <0>        -0.2364
     11 C10         0.8877   -1.7355    1.2567 C.ar      1 <0>         0.1915
     12 O1          1.1693   -0.4880    0.7973 O.3       1 <0>        -0.3134
     13 O2          2.3634   -4.1532    3.5541 O.3       1 <0>        -0.2938
     14 C11         3.5105   -3.3882    3.9296 C.3       1 <0>         0.0978
     15 C12         4.3382   -4.1740    4.9136 C.ar      1 <0>        -0.0927
     16 C13         4.0963   -4.0563    6.2695 C.ar      1 <0>        -0.0938
     17 C14         4.8556   -4.7771    7.1722 C.ar      1 <0>        -0.1244
     18 C15         5.8566   -5.6159    6.7189 C.ar      1 <0>        -0.1115
     19 C16         6.0979   -5.7342    5.3629 C.ar      1 <0>        -0.1242
     20 C17         5.3358   -5.0167    4.4601 C.ar      1 <0>        -0.0937
     21 Cl1         0.0413   -5.8571    2.8820 Cl        1 <0>        -0.0639
     22 C18        -0.9750   -2.4488   -1.5197 C.3       1 <0>        -0.2114
     23 C19        -1.9862   -1.9026   -2.4944 C.2       1 <0>         0.4941
     24 O3         -2.8920   -1.1894   -2.0976 O.co2     1 <0>        -0.6704
     25 O4         -1.8985   -2.1739   -3.6799 O.co2     1 <0>        -0.7068
     26 O5         -2.5481   -2.1049    0.2811 O.3       1 <0>        -0.5205
     27 H2          1.8007    1.6459   -0.6823 H         1 <0>         0.0641
     28 H3          0.2121    1.7925   -1.4716 H         1 <0>         0.0837
     29 H4          0.3523    1.9968    0.2910 H         1 <0>         0.0656
     30 H5         -1.3624    0.1526    0.6970 H         1 <0>         0.0732
     31 H6         -1.5439    0.0856   -1.0753 H         1 <0>         0.1207
     32 H7         -1.3788   -4.2269    1.0346 H         1 <0>         0.1394
     33 H8          2.6458   -1.7842    2.4834 H         1 <0>         0.1421
     34 H9          4.1079   -3.1708    3.0442 H         1 <0>         0.0743
     35 H10         3.1892   -2.4537    4.3896 H         1 <0>         0.0743
     36 H11         3.3143   -3.4010    6.6237 H         1 <0>         0.1248
     37 H12         4.6671   -4.6847    8.2316 H         1 <0>         0.1243
     38 H13         6.4503   -6.1785    7.4242 H         1 <0>         0.1227
     39 H14         6.8802   -6.3892    5.0088 H         1 <0>         0.1244
     40 H15         5.5218   -5.1119    3.4005 H         1 <0>         0.1250
     41 H16         0.0299   -2.2017   -1.8619 H         1 <0>         0.0627
     42 H17        -1.0808   -3.5318   -1.4551 H         1 <0>         0.0618
     43 H18        -2.7520   -3.0474    0.3533 H         1 <0>         0.3600
@<TRIPOS>BOND
     1    1    2 1
     2    1   27 1
     3    1   28 1
     4    1   29 1
     5    2    3 1
     6    2   12 1
     7    2    4 1
     8    4    5 1
     9    4   30 1
    10    4   31 1
    11    5    6 1
    12    5   22 1
    13    5   26 1
    14    6   11 ar
    15    6    7 ar
    16    7    8 ar
    17    7   32 1
    18    8    9 ar
    19    8   21 1
    20    9   10 ar
    21    9   13 1
    22   10   11 ar
    23   10   33 1
    24   11   12 1
    25   13   14 1
    26   14   15 1
    27   14   34 1
    28   14   35 1
    29   15   20 ar
    30   15   16 ar
    31   16   17 ar
    32   16   36 1
    33   17   18 ar
    34   17   37 1
    35   18   19 ar
    36   18   38 1
    37   19   20 ar
    38   19   39 1
    39   20   40 1
    40   22   23 1
    41   22   41 1
    42   22   42 1
    43   23   24 2
    44   23   25 1
    45   26   43 1
@<TRIPOS>MOLECULE
CHEMBL522150
   41    44     0     0     0
SMALL
USER_CHARGES

@<TRIPOS>ATOM
      1 C1          0.1287    1.2507    1.7159 C.ar      1 <0>        -0.1489
      2 C2          1.3268    1.9497    1.7412 C.ar      1 <0>        -0.0557
      3 C3          2.5142    1.3221    1.4306 C.ar      1 <0>        -0.1349
      4 C4          2.5176   -0.0246    1.0877 C.ar      1 <0>         0.1486
      5 C5          1.3047   -0.7308    1.0624 C.ar      1 <0>        -0.2246
      6 C6          0.1106   -0.0850    1.3786 C.ar      1 <0>        -0.0343
      7 C7          1.3306   -2.1607    0.6954 C.2       1 <0>         0.4248
      8 O1          0.3078   -2.8242    0.6565 O.2       1 <0>        -0.4764
      9 C8          2.5890   -2.7305    0.3903 C.2       1 <0>        -0.3224
     10 C9          3.7061   -1.9564    0.4451 C.2       1 <0>         0.2178
     11 O2          3.6687   -0.6576    0.7798 O.3       1 <0>        -0.2135
     12 C10         5.0107   -2.5691    0.1231 C.ar      1 <0>        -0.0714
     13 C11         5.0814   -3.9187   -0.2353 C.ar      1 <0>        -0.0653
     14 C12         6.2997   -4.4946   -0.5370 C.ar      1 <0>        -0.1226
     15 C13         7.4570   -3.7443   -0.4874 C.ar      1 <0>        -0.0603
     16 C14         7.4028   -2.3916   -0.1302 C.ar      1 <0>        -0.0774
     17 C15         6.1727   -1.8020    0.1704 C.ar      1 <0>        -0.0584
     18 C16         8.6362   -1.5928   -0.0771 C.2       1 <0>         0.0321
     19 C17         8.6088   -0.3366    0.4317 C.2       1 <0>        -0.1720
     20 C18         9.6643    0.6985    0.4443 C.2       1 <0>         0.5598
     21 O3         10.7596    0.5011   -0.0476 O.2       1 <0>        -0.4685
     22 N1          9.3569    1.8500    1.0173 N.am      1 <0>        -0.5436
     23 C19         8.1417    2.0644    1.5612 C.2       1 <0>         0.5501
     24 O4          7.7283    3.0653    2.1148 O.2       1 <0>        -0.4204
     25 S1          7.2837    0.5268    1.2651 S.3       1 <0>        -0.0704
     26 C20        10.3596    2.9171    1.0625 C.3       1 <0>         0.0205
     27 C21        10.2333    3.7776   -0.1683 C.2       1 <0>         0.4912
     28 O5          9.3844    3.5230   -1.0056 O.co2     1 <0>        -0.6823
     29 O6         10.9800    4.7283   -0.3267 O.co2     1 <0>        -0.6842
     30 H1         -0.7932    1.7546    1.9660 H         1 <0>         0.1356
     31 H2          1.3291    2.9966    2.0068 H         1 <0>         0.1425
     32 H3          3.4408    1.8765    1.4533 H         1 <0>         0.1487
     33 H4         -0.8227   -0.6282    1.3592 H         1 <0>         0.1409
     34 H5          2.6623   -3.7726    0.1162 H         1 <0>         0.1620
     35 H6          4.1804   -4.5128   -0.2761 H         1 <0>         0.1399
     36 H7          6.3472   -5.5377   -0.8127 H         1 <0>         0.1404
     37 H8          8.4064   -4.2015   -0.7243 H         1 <0>         0.1411
     38 H9          6.1232   -0.7580    0.4423 H         1 <0>         0.1510
     39 H10         9.5639   -2.0069   -0.4435 H         1 <0>         0.1658
     40 H11        10.2001    3.5281    1.9509 H         1 <0>         0.0954
     41 H12        11.3565    2.4777    1.0979 H         1 <0>         0.0995
@<TRIPOS>BOND
     1    1    6 ar
     2    1    2 ar
     3    1   30 1
     4    2    3 ar
     5    2   31 1
     6    3    4 ar
     7    3   32 1
     8    4   11 1
     9    4    5 ar
    10    5    6 ar
    11    5    7 1
    12    6   33 1
    13    7    8 2
    14    7    9 1
    15    9   10 2
    16    9   34 1
    17   10   11 1
    18   10   12 1
    19   12   17 ar
    20   12   13 ar
    21   13   14 ar
    22   13   35 1
    23   14   15 ar
    24   14   36 1
    25   15   16 ar
    26   15   37 1
    27   16   17 ar
    28   16   18 1
    29   17   38 1
    30   18   19 2
    31   18   39 1
    32   19   25 1
    33   19   20 1
    34   20   21 2
    35   20   22 am
    36   22   23 am
    37   22   26 1
    38   23   24 2
    39   23   25 1
    40   26   27 1
    41   26   40 1
    42   26   41 1
    43   27   28 2
    44   27   29 1
@<TRIPOS>MOLECULE
CHEMBL69537
   43    47     0     0     0
SMALL
USER_CHARGES

@<TRIPOS>ATOM
      1 C1         -0.0164    1.3552    0.0095 C.ar      1 <0>        -0.1087
      2 C2          1.1593    2.1029    0.0023 C.ar      1 <0>        -0.1225
      3 C3          2.3822    1.5094   -0.0125 C.ar      1 <0>        -0.0935
      4 C4          2.4721    0.1037   -0.0209 C.ar      1 <0>        -0.0654
      5 C5          3.7152   -0.5417   -0.0357 C.ar      1 <0>        -0.0279
      6 C6          3.7621   -1.9225   -0.0431 C.ar      1 <0>        -0.1337
      7 C7          2.5261   -2.7112   -0.0355 C.ar      1 <0>        -0.0522
      8 C8          1.2940   -2.0812   -0.0195 C.ar      1 <0>        -0.0816
      9 C9          1.2368   -0.6822   -0.0133 C.ar      1 <0>        -0.0302
     10 C10         0.0021   -0.0041    0.0020 C.ar      1 <0>        -0.1058
     11 C11         2.6443   -4.1731   -0.0451 C.2       1 <0>         0.1293
     12 N1          3.8184   -4.7262   -0.0597 N.2       1 <0>        -0.1251
     13 N2          5.0090   -4.0034   -0.0672 N.am      1 <0>        -0.4406
     14 C12         5.0386   -2.6553   -0.0597 C.2       1 <0>         0.5231
     15 O1          6.0989   -2.0567   -0.0667 O.2       1 <0>        -0.5332
     16 C13         6.2776   -4.7359   -0.0832 C.3       1 <0>         0.2213
     17 C14         6.7262   -4.9946    1.3320 C.2       1 <0>         0.0921
     18 N3          6.4543   -6.0246    2.0791 N.2       1 <0>        -0.4742
     19 C15         6.9198   -6.1410    3.3398 C.ar      1 <0>         0.0828
     20 C16         6.7297   -7.1721    4.2834 C.ar      1 <0>        -0.0531
     21 C17         7.2952   -7.0925    5.5190 C.ar      1 <0>        -0.1152
     22 C18         8.0726   -6.0056    5.8945 C.ar      1 <0>        -0.1017
     23 C19         8.2821   -4.9755    4.9968 C.ar      1 <0>        -0.0671
     24 C20         7.7156   -5.0464    3.7472 C.ar      1 <0>        -0.1741
     25 S1          7.6982   -4.0201    2.3006 S.3       1 <0>         0.0943
     26 C21         1.4054   -5.0311   -0.0374 C.3       1 <0>        -0.1331
     27 C22         1.8012   -6.4851   -0.0497 C.2       1 <0>         0.4884
     28 O2          2.9801   -6.7959   -0.0634 O.co2     1 <0>        -0.6456
     29 O3          0.9426   -7.3507   -0.0459 O.co2     1 <0>        -0.7064
     30 H1         -0.9664    1.8685    0.0259 H         1 <0>         0.1231
     31 H2          1.0975    3.1811    0.0083 H         1 <0>         0.1224
     32 H3          3.2788    2.1115   -0.0182 H         1 <0>         0.1301
     33 H4          4.6285    0.0346   -0.0417 H         1 <0>         0.1451
     34 H5          0.3845   -2.6636   -0.0139 H         1 <0>         0.1464
     35 H6         -0.9236   -0.5603    0.0082 H         1 <0>         0.1331
     36 H7          6.1424   -5.6855   -0.6009 H         1 <0>         0.1336
     37 H8          7.0323   -4.1440   -0.6011 H         1 <0>         0.1199
     38 H9          6.1299   -8.0318    4.0234 H         1 <0>         0.1357
     39 H10         7.1349   -7.8944    6.2245 H         1 <0>         0.1324
     40 H11         8.5103   -5.9648    6.8809 H         1 <0>         0.1351
     41 H12         8.8849   -4.1237    5.2749 H         1 <0>         0.1309
     42 H13         0.8232   -4.8206    0.8598 H         1 <0>         0.0850
     43 H14         0.8052   -4.8104   -0.9201 H         1 <0>         0.0865
@<TRIPOS>BOND
     1    1   10 ar
     2    1    2 ar
     3    1   30 1
     4    2    3 ar
     5    2   31 1
     6    3    4 ar
     7    3   32 1
     8    4    9 ar
     9    4    5 ar
    10    5    6 ar
    11    5   33 1
    12    6   14 1
    13    6    7 ar
    14    7    8 ar
    15    7   11 1
    16    8    9 ar
    17    8   34 1
    18    9   10 ar
    19   10   35 1
    20   11   12 2
    21   11   26 1
    22   12   13 1
    23   13   14 am
    24   13   16 1
    25   14   15 2
    26   16   17 1
    27   16   36 1
    28   16   37 1
    29   17   25 1
    30   17   18 2
    31   18   19 1
    32   19   24 ar
    33   19   20 ar
    34   20   21 ar
    35   20   38 1
    36   21   22 ar
    37   21   39 1
    38   22   23 ar
    39   22   40 1
    40   23   24 ar
    41   23   41 1
    42   24   25 1
    43   26   27 1
    44   26   42 1
    45   26   43 1
    46   27   28 2
    47   27   29 1
@<TRIPOS>MOLECULE
CHEMBL494695
   36    39     0     0     0
SMALL
USER_CHARGES

@<TRIPOS>ATOM
      1 C1         -0.0989    1.2084    0.5544 C.ar      1 <0>        -0.1465
      2 C2          1.0791    1.9341    0.6564 C.ar      1 <0>        -0.0559
      3 C3          2.3027    1.3032    0.5834 C.ar      1 <0>        -0.1393
      4 C4          2.3633   -0.0738    0.4064 C.ar      1 <0>         0.1457
      5 C5          1.1707   -0.8071    0.3038 C.ar      1 <0>        -0.2229
      6 C6         -0.0604   -0.1576    0.3787 C.ar      1 <0>        -0.0305
      7 C7          1.2572   -2.2690    0.1160 C.2       1 <0>         0.4206
      8 O1          0.2542   -2.9566    0.0203 O.2       1 <0>        -0.4647
      9 C8          2.5498   -2.8406    0.0510 C.2       1 <0>        -0.3065
     10 C9          3.6437   -2.0384    0.1618 C.2       1 <0>         0.2027
     11 O2          3.5507   -0.7104    0.3320 O.3       1 <0>        -0.2200
     12 C10         4.9832   -2.6523    0.0922 C.ar      1 <0>        -0.0461
     13 C11         5.1104   -4.0333   -0.0904 C.ar      1 <0>        -0.0775
     14 C12         6.3498   -4.6026   -0.1546 C.ar      1 <0>        -0.0929
     15 C13         7.4942   -3.8031   -0.0380 C.ar      1 <0>        -0.0707
     16 C14         7.3656   -2.4201    0.1444 C.ar      1 <0>        -0.0807
     17 C15         6.1252   -1.8522    0.2030 C.ar      1 <0>        -0.0820
     18 C16         8.8279   -4.4144   -0.1063 C.2       1 <0>         0.0683
     19 C17         8.9763   -5.6632   -0.6150 C.2       1 <0>        -0.2069
     20 C18        10.1715   -6.5353   -0.6414 C.2       1 <0>         0.5612
     21 O3         11.2329   -6.1808   -0.1640 O.2       1 <0>        -0.4656
     22 N1         10.0259   -7.7202   -1.2103 N.am      1 <0>        -0.6849
     23 C19         8.8476   -8.1089   -1.7381 C.2       1 <0>         0.5364
     24 O4          8.5759   -9.1603   -2.2857 O.2       1 <0>        -0.4128
     25 S1          7.7798   -6.7112   -1.4310 S.3       1 <0>        -0.0321
     26 H1         -1.0501    1.7158    0.6175 H         1 <0>         0.1381
     27 H2          1.0372    3.0045    0.7940 H         1 <0>         0.1427
     28 H3          3.2132    1.8785    0.6633 H         1 <0>         0.1448
     29 H4         -0.9781   -0.7215    0.2999 H         1 <0>         0.1435
     30 H5          2.6676   -3.9055   -0.0852 H         1 <0>         0.1642
     31 H6          4.2280   -4.6494   -0.1803 H         1 <0>         0.1449
     32 H7          6.4478   -5.6690   -0.2949 H         1 <0>         0.1459
     33 H8          8.2471   -1.8027    0.2345 H         1 <0>         0.1443
     34 H9          6.0259   -0.7855    0.3396 H         1 <0>         0.1440
     35 H10         9.6904   -3.8698    0.2484 H         1 <0>         0.1686
     36 H11        10.7844   -8.3235   -1.2492 H         1 <0>         0.4225
@<TRIPOS>BOND
     1    1    6 ar
     2    1    2 ar
     3    1   26 1
     4    2    3 ar
     5    2   27 1
     6    3    4 ar
     7    3   28 1
     8    4   11 1
     9    4    5 ar
    10    5    6 ar
    11    5    7 1
    12    6   29 1
    13    7    8 2
    14    7    9 1
    15    9   10 2
    16    9   30 1
    17   10   11 1
    18   10   12 1
    19   12   17 ar
    20   12   13 ar
    21   13   14 ar
    22   13   31 1
    23   14   15 ar
    24   14   32 1
    25   15   16 ar
    26   15   18 1
    27   16   17 ar
    28   16   33 1
    29   17   34 1
    30   18   19 2
    31   18   35 1
    32   19   25 1
    33   19   20 1
    34   20   21 2
    35   20   22 am
    36   22   23 am
    37   22   36 1
    38   23   24 2
    39   23   25 1
@<TRIPOS>MOLECULE
CHEMBL140042
   41    44     0     0     0
SMALL
USER_CHARGES

@<TRIPOS>ATOM
      1 C1         -0.0167    1.3793    0.0096 C.ar      1 <0>        -0.1166
      2 C2          1.1683    2.0934    0.0021 C.ar      1 <0>        -0.1165
      3 C3          2.3774    1.4292   -0.0134 C.ar      1 <0>        -0.1016
      4 C4          2.4034    0.0337   -0.0211 C.ar      1 <0>        -0.0047
      5 C5          1.2043   -0.6806   -0.0130 C.ar      1 <0>        -0.0982
      6 C6          0.0021   -0.0041    0.0020 C.ar      1 <0>        -0.1155
      7 C7          3.6953   -0.6846   -0.0382 C.2       1 <0>        -0.0189
      8 C8          3.8726   -2.0306   -0.0527 C.2       1 <0>        -0.0156
      9 N1          5.1935   -2.2637   -0.0661 N.2       1 <0>        -0.4375
     10 C9          5.8238   -1.1226   -0.0605 C.2       1 <0>         0.1812
     11 O1          4.9263   -0.1277   -0.0484 O.3       1 <0>        -0.1869
     12 C10         7.3208   -0.9502   -0.0710 C.3       1 <0>         0.2356
     13 N2          7.7946   -0.8806   -1.4556 N.am      1 <0>        -0.4427
     14 C11         7.8775    0.3221   -2.0617 C.2       1 <0>         0.5195
     15 O2          7.5634    1.3388   -1.4689 O.2       1 <0>        -0.5359
     16 C12         8.3538    0.3821   -3.4491 C.ar      1 <0>        -0.1341
     17 C13         8.4665    1.5876   -4.1405 C.ar      1 <0>        -0.0561
     18 C14         8.9202    1.5811   -5.4413 C.ar      1 <0>        -0.1278
     19 C15         9.2640    0.3894   -6.0664 C.ar      1 <0>        -0.0918
     20 C16         9.1615   -0.8041   -5.4080 C.ar      1 <0>        -0.1000
     21 C17         8.7052   -0.8286   -4.0887 C.ar      1 <0>        -0.0420
     22 C18         8.5774   -2.0784   -3.3390 C.2       1 <0>         0.1241
     23 N3          8.1536   -2.0590   -2.1104 N.2       1 <0>        -0.1205
     24 C19         8.9431   -3.3877   -3.9892 C.3       1 <0>        -0.1330
     25 C20         8.7227   -4.5130   -3.0114 C.2       1 <0>         0.4877
     26 O3          8.3072   -4.2739   -1.8904 O.co2     1 <0>        -0.6457
     27 O4          8.9599   -5.6626   -3.3413 O.co2     1 <0>        -0.7060
     28 H1         -0.9605    1.9041    0.0260 H         1 <0>         0.1248
     29 H2          1.1468    3.1732    0.0081 H         1 <0>         0.1267
     30 H3          3.3017    1.9878   -0.0199 H         1 <0>         0.1285
     31 H4          1.2176   -1.7605   -0.0192 H         1 <0>         0.1306
     32 H5         -0.9265   -0.5556    0.0082 H         1 <0>         0.1293
     33 H6          3.0924   -2.7774   -0.0533 H         1 <0>         0.1860
     34 H7          7.5842   -0.0296    0.4498 H         1 <0>         0.1193
     35 H8          7.7878   -1.7978    0.4306 H         1 <0>         0.1430
     36 H9          8.2002    2.5179   -3.6608 H         1 <0>         0.1374
     37 H10         9.0091    2.5125   -5.9808 H         1 <0>         0.1301
     38 H11         9.6169    0.4059   -7.0870 H         1 <0>         0.1304
     39 H12         9.4322   -1.7235   -5.9058 H         1 <0>         0.1410
     40 H13         8.3187   -3.5434   -4.8690 H         1 <0>         0.0856
     41 H14         9.9914   -3.3653   -4.2871 H         1 <0>         0.0868
@<TRIPOS>BOND
     1    1    6 ar
     2    1    2 ar
     3    1   28 1
     4    2    3 ar
     5    2   29 1
     6    3    4 ar
     7    3   30 1
     8    4    5 ar
     9    4    7 1
    10    5    6 ar
    11    5   31 1
    12    6   32 1
    13    7   11 1
    14    7    8 2
    15    8    9 1
    16    8   33 1
    17    9   10 2
    18   10   11 1
    19   10   12 1
    20   12   13 1
    21   12   34 1
    22   12   35 1
    23   13   23 1
    24   13   14 am
    25   14   15 2
    26   14   16 1
    27   16   21 ar
    28   16   17 ar
    29   17   18 ar
    30   17   36 1
    31   18   19 ar
    32   18   37 1
    33   19   20 ar
    34   19   38 1
    35   20   21 ar
    36   20   39 1
    37   21   22 1
    38   22   23 2
    39   22   24 1
    40   24   25 1
    41   24   40 1
    42   24   41 1
    43   25   26 2
    44   25   27 1
@<TRIPOS>MOLECULE
CHEMBL142001
   32    34     0     0     0
SMALL
USER_CHARGES

@<TRIPOS>ATOM
      1 C1         -0.1105    1.3113    0.0243 C.ar      1 <0>        -0.1162
      2 C2          1.0569    2.0601    0.1613 C.ar      1 <0>        -0.1047
      3 C3          2.2746    1.4547    0.2303 C.ar      1 <0>        -0.1089
      4 C4          2.3614    0.0545    0.1628 C.ar      1 <0>        -0.0327
      5 C5          3.6063   -0.5984    0.2320 C.ar      1 <0>        -0.0974
      6 C6          3.6687   -1.9527    0.1653 C.ar      1 <0>        -0.0067
      7 C7          2.4954   -2.7235    0.0265 C.ar      1 <0>        -0.0705
      8 C8          1.2531   -2.1063   -0.0444 C.ar      1 <0>        -0.0591
      9 C9          1.1735   -0.7082    0.0232 C.ar      1 <0>        -0.0510
     10 C10        -0.0667   -0.0471   -0.0447 C.ar      1 <0>        -0.0924
     11 C11         2.5880   -4.1877   -0.0440 C.2       1 <0>         0.0332
     12 C12         1.5500   -4.9102   -0.5351 C.2       1 <0>        -0.1698
     13 C13         1.3447   -6.3736   -0.5510 C.2       1 <0>         0.5595
     14 O1          2.1649   -7.1395   -0.0803 O.2       1 <0>        -0.4665
     15 N1          0.2241   -6.8081   -1.1024 N.am      1 <0>        -0.5433
     16 C14        -0.6823   -5.9557   -1.6223 C.2       1 <0>         0.5580
     17 O2         -1.7447   -6.2154   -2.1545 O.2       1 <0>        -0.4192
     18 S1          0.0508   -4.3534   -1.3338 S.3       1 <0>        -0.0784
     19 C15        -0.0385   -8.2486   -1.1498 C.3       1 <0>         0.0208
     20 C16        -0.7789   -8.6655    0.0948 C.2       1 <0>         0.4913
     21 O3         -1.0610   -7.8363    0.9429 O.co2     1 <0>        -0.6823
     22 O4         -1.0957   -9.8321    0.2537 O.co2     1 <0>        -0.6843
     23 Cl1         5.2107   -2.7457    0.2513 Cl        1 <0>        -0.0570
     24 H1         -1.0640    1.8162   -0.0235 H         1 <0>         0.1276
     25 H2          0.9948    3.1371    0.2133 H         1 <0>         0.1261
     26 H3          3.1702    2.0489    0.3361 H         1 <0>         0.1306
     27 H4          4.5130   -0.0212    0.3380 H         1 <0>         0.1428
     28 H5          0.3562   -2.6983   -0.1510 H         1 <0>         0.1550
     29 H6         -0.9793   -0.6149   -0.1505 H         1 <0>         0.1356
     30 H7          3.4824   -4.6891    0.2950 H         1 <0>         0.1645
     31 H8         -0.6436   -8.4790   -2.0267 H         1 <0>         0.0957
     32 H9          0.9065   -8.7885   -1.2084 H         1 <0>         0.0999
@<TRIPOS>BOND
     1    1   10 ar
     2    1    2 ar
     3    1   24 1
     4    2    3 ar
     5    2   25 1
     6    3    4 ar
     7    3   26 1
     8    4    9 ar
     9    4    5 ar
    10    5    6 ar
    11    5   27 1
    12    6    7 ar
    13    6   23 1
    14    7    8 ar
    15    7   11 1
    16    8    9 ar
    17    8   28 1
    18    9   10 ar
    19   10   29 1
    20   11   12 2
    21   11   30 1
    22   12   18 1
    23   12   13 1
    24   13   14 2
    25   13   15 am
    26   15   16 am
    27   15   19 1
    28   16   17 2
    29   16   18 1
    30   19   20 1
    31   19   31 1
    32   19   32 1
    33   20   21 2
    34   20   22 1
@<TRIPOS>MOLECULE
CHEMBL281620
   37    40     0     0     0
SMALL
USER_CHARGES

@<TRIPOS>ATOM
      1 C1         -0.0167    1.3782    0.0096 C.ar      1 <0>        -0.0736
      2 C2          1.1703    2.0860    0.0021 C.ar      1 <0>        -0.1537
      3 C3          2.3786    1.4101   -0.0131 C.ar      1 <0>         0.1069
      4 C4          2.3962    0.0256   -0.0207 C.ar      1 <0>        -0.1529
      5 C5          1.2079   -0.6800   -0.0132 C.ar      1 <0>        -0.0705
      6 C6          0.0021   -0.0041    0.0020 C.ar      1 <0>        -0.1294
      7 C7         -1.2930   -0.7747    0.0103 C.3       1 <0>         0.1831
      8 N1         -1.7258   -1.0170   -1.3682 N.pl3     1 <0>        -0.6168
      9 C8         -2.5848   -0.1201   -2.1513 C.3       1 <0>         0.1281
     10 C9         -2.7420   -0.8129   -3.5044 C.3       1 <0>         0.1651
     11 C10        -1.9436   -2.0827   -3.4012 C.ar      1 <0>        -0.1632
     12 C11        -1.3768   -2.1339   -2.1343 C.ar      1 <0>         0.2168
     13 C12        -0.5781   -3.2256   -1.7922 C.ar      1 <0>        -0.1499
     14 C13        -0.3520   -4.2367   -2.7019 C.ar      1 <0>        -0.0838
     15 C14        -0.9169   -4.1756   -3.9643 C.ar      1 <0>         0.0475
     16 C15        -1.7174   -3.1000   -4.3083 C.ar      1 <0>        -0.0676
     17 F1         -0.6942   -5.1667   -4.8549 F         1 <0>        -0.1376
     18 C16        -2.2591    0.0596   -4.6334 C.2       1 <0>         0.5410
     19 O1         -1.1478    0.5201   -4.7842 O.2       1 <0>        -0.4421
     20 N2         -3.3295    0.2192   -5.4418 N.am      1 <0>        -0.6801
     21 C17        -4.4027   -0.4303   -4.9722 C.2       1 <0>         0.7058
     22 O2         -5.4852   -0.4359   -5.5249 O.2       1 <0>        -0.5308
     23 N3         -4.1469   -1.0769   -3.8169 N.am      1 <0>        -0.7093
     24 F2          3.5396    2.1009   -0.0209 F         1 <0>        -0.1373
     25 H1         -0.9592    1.9052    0.0260 H         1 <0>         0.1313
     26 H2          1.1554    3.1659    0.0077 H         1 <0>         0.1371
     27 H3          3.3381   -0.5027   -0.0329 H         1 <0>         0.1375
     28 H4          1.2213   -1.7599   -0.0195 H         1 <0>         0.1317
     29 H5         -1.1453   -1.7280    0.5176 H         1 <0>         0.0935
     30 H6         -2.0553   -0.1984    0.5345 H         1 <0>         0.0945
     31 H7         -3.5552   -0.0065   -1.6682 H         1 <0>         0.0979
     32 H8         -2.1059    0.8511   -2.2757 H         1 <0>         0.0898
     33 H9         -0.1346   -3.2791   -0.8089 H         1 <0>         0.1339
     34 H10         0.2677   -5.0781   -2.4292 H         1 <0>         0.1434
     35 H11        -2.1580   -3.0506   -5.2932 H         1 <0>         0.1321
     36 H12        -3.3220    0.7397   -6.2604 H         1 <0>         0.4367
     37 H13        -4.7690   -1.6101   -3.2976 H         1 <0>         0.4449
@<TRIPOS>BOND
     1    1    6 ar
     2    1    2 ar
     3    1   25 1
     4    2    3 ar
     5    2   26 1
     6    3    4 ar
     7    3   24 1
     8    4    5 ar
     9    4   27 1
    10    5    6 ar
    11    5   28 1
    12    6    7 1
    13    7    8 1
    14    7   29 1
    15    7   30 1
    16    8   12 1
    17    8    9 1
    18    9   10 1
    19    9   31 1
    20    9   32 1
    21   10   23 1
    22   10   11 1
    23   10   18 1
    24   11   16 ar
    25   11   12 ar
    26   12   13 ar
    27   13   14 ar
    28   13   33 1
    29   14   15 ar
    30   14   34 1
    31   15   16 ar
    32   15   17 1
    33   16   35 1
    34   18   19 2
    35   18   20 am
    36   20   21 am
    37   20   36 1
    38   21   22 2
    39   21   23 am
    40   23   37 1
@<TRIPOS>MOLECULE
CHEMBL281620__1
   36    39     0     0     0
SMALL
USER_CHARGES

@<TRIPOS>ATOM
      1 C1         -0.0167    1.3782    0.0096 C.ar      1 <0>        -0.0708
      2 C2          1.1703    2.0860    0.0021 C.ar      1 <0>        -0.1523
      3 C3          2.3786    1.4101   -0.0131 C.ar      1 <0>         0.0993
      4 C4          2.3962    0.0256   -0.0207 C.ar      1 <0>        -0.1542
      5 C5          1.2079   -0.6800   -0.0132 C.ar      1 <0>        -0.0716
      6 C6          0.0021   -0.0041    0.0020 C.ar      1 <0>        -0.1198
      7 C7         -1.2930   -0.7747    0.0103 C.3       1 <0>         0.1846
      8 N1         -1.7258   -1.0170   -1.3682 N.pl3     1 <0>        -0.6186
      9 C8         -2.5848   -0.1200   -2.1514 C.3       1 <0>         0.1379
     10 C9         -2.7422   -0.8133   -3.5039 C.3       1 <0>         0.1328
     11 C10        -1.9438   -2.0828   -3.4013 C.ar      1 <0>        -0.1103
     12 C11        -1.3768   -2.1339   -2.1343 C.ar      1 <0>         0.2009
     13 C12        -0.5780   -3.2255   -1.7923 C.ar      1 <0>        -0.1596
     14 C13        -0.3513   -4.2363   -2.7022 C.ar      1 <0>        -0.1058
     15 C14        -0.9166   -4.1754   -3.9645 C.ar      1 <0>         0.0391
     16 C15        -1.7177   -3.1003   -4.3083 C.ar      1 <0>        -0.0744
     17 F1         -0.6933   -5.1662   -4.8554 F         1 <0>        -0.1468
     18 C16        -2.2646    0.0587   -4.6348 C.2       1 <0>         0.4722
     19 O1         -1.0333    0.5679   -4.8014 O.3       1 <0>        -0.6285
     20 N2         -3.2981    0.2170   -5.4219 N.2       1 <0>        -0.6721
     21 C17        -4.3865   -0.4241   -4.9734 C.2       1 <0>         0.6603
     22 O2         -5.4623   -0.4184   -5.5423 O.2       1 <0>        -0.5895
     23 N3         -4.1481   -1.0777   -3.8160 N.am      1 <0>        -0.7599
     24 F2          3.5396    2.1009   -0.0209 F         1 <0>        -0.1422
     25 H1         -0.9592    1.9052    0.0260 H         1 <0>         0.1312
     26 H2          1.1554    3.1659    0.0077 H         1 <0>         0.1347
     27 H3          3.3381   -0.5027   -0.0329 H         1 <0>         0.1340
     28 H4          1.2213   -1.7599   -0.0195 H         1 <0>         0.1303
     29 H5         -1.1453   -1.7280    0.5176 H         1 <0>         0.0857
     30 H6         -2.0553   -0.1984    0.5345 H         1 <0>         0.0876
     31 H7         -3.5552   -0.0062   -1.6681 H         1 <0>         0.0743
     32 H8         -2.1058    0.8511   -2.2761 H         1 <0>         0.0802
     33 H9         -0.1343   -3.2789   -0.8091 H         1 <0>         0.1235
     34 H10         0.2684   -5.0777   -2.4295 H         1 <0>         0.1328
     35 H11        -2.1583   -3.0508   -5.2931 H         1 <0>         0.1292
     36 H12        -4.7748   -1.6098   -3.3012 H         1 <0>         0.4059
@<TRIPOS>BOND
     1    1    6 ar
     2    1    2 ar
     3    1   25 1
     4    2    3 ar
     5    2   26 1
     6    3    4 ar
     7    3   24 1
     8    4    5 ar
     9    4   27 1
    10    5    6 ar
    11    5   28 1
    12    6    7 1
    13    7    8 1
    14    7   29 1
    15    7   30 1
    16    8   12 1
    17    8    9 1
    18    9   10 1
    19    9   31 1
    20    9   32 1
    21   10   23 1
    22   10   11 1
    23   10   18 1
    24   11   16 ar
    25   11   12 ar
    26   12   13 ar
    27   13   14 ar
    28   13   33 1
    29   14   15 ar
    30   14   34 1
    31   15   16 ar
    32   15   17 1
    33   16   35 1
    34   18   19 1
    35   18   20 2
    36   20   21 1
    37   21   22 2
    38   21   23 am
    39   23   36 1
@<TRIPOS>MOLECULE
CHEMBL281620__2
   37    40     0     0     0
SMALL
USER_CHARGES

@<TRIPOS>ATOM
      1 C1         -0.0167    1.3782    0.0096 C.ar      1 <0>        -0.0748
      2 C2          1.1703    2.0860    0.0021 C.ar      1 <0>        -0.1542
      3 C3          2.3786    1.4101   -0.0131 C.ar      1 <0>         0.1062
      4 C4          2.3962    0.0256   -0.0207 C.ar      1 <0>        -0.1531
      5 C5          1.2079   -0.6800   -0.0132 C.ar      1 <0>        -0.0709
      6 C6          0.0021   -0.0041    0.0020 C.ar      1 <0>        -0.1283
      7 C7         -1.2930   -0.7747    0.0103 C.3       1 <0>         0.1821
      8 N1         -1.7258   -1.0170   -1.3682 N.pl3     1 <0>        -0.6165
      9 C8         -2.5848   -0.1201   -2.1513 C.3       1 <0>         0.1281
     10 C9         -2.7379   -0.8106   -3.5061 C.3       1 <0>         0.1650
     11 C10        -1.9424   -2.0820   -3.4017 C.ar      1 <0>        -0.1631
     12 C11        -1.3768   -2.1339   -2.1343 C.ar      1 <0>         0.2169
     13 C12        -0.5791   -3.2262   -1.7917 C.ar      1 <0>        -0.1499
     14 C13        -0.3539   -4.2378   -2.7011 C.ar      1 <0>        -0.0837
     15 C14        -0.9192   -4.1770   -3.9633 C.ar      1 <0>         0.0474
     16 C15        -1.7183   -3.1006   -4.3080 C.ar      1 <0>        -0.0674
     17 F1         -0.6981   -5.1691   -4.8533 F         1 <0>        -0.1376
     18 C16        -4.1839   -1.0820   -3.8296 C.2       1 <0>         0.5424
     19 O1         -4.9694   -1.7462   -3.1882 O.2       1 <0>        -0.4434
     20 N2         -4.4180   -0.4264   -4.9873 N.am      1 <0>        -0.6797
     21 C17        -3.3230    0.2101   -5.4231 C.2       1 <0>         0.7057
     22 O2         -3.2849    0.8687   -6.4439 O.2       1 <0>        -0.5306
     23 N3         -2.2675    0.0377   -4.6017 N.am      1 <0>        -0.7095
     24 F2          3.5396    2.1009   -0.0209 F         1 <0>        -0.1372
     25 H1         -0.9592    1.9052    0.0260 H         1 <0>         0.1320
     26 H2          1.1554    3.1659    0.0077 H         1 <0>         0.1372
     27 H3          3.3381   -0.5027   -0.0329 H         1 <0>         0.1376
     28 H4          1.2213   -1.7599   -0.0195 H         1 <0>         0.1321
     29 H5         -1.1453   -1.7280    0.5176 H         1 <0>         0.0939
     30 H6         -2.0553   -0.1984    0.5345 H         1 <0>         0.0949
     31 H7         -3.5564   -0.0092   -1.6699 H         1 <0>         0.0932
     32 H8         -2.1074    0.8522   -2.2728 H         1 <0>         0.0946
     33 H9         -0.1351   -3.2794   -0.8086 H         1 <0>         0.1339
     34 H10         0.2653   -5.0795   -2.4282 H         1 <0>         0.1434
     35 H11        -2.1589   -3.0511   -5.2928 H         1 <0>         0.1321
     36 H12        -5.2726   -0.4180   -5.4461 H         1 <0>         0.4368
     37 H13        -1.3760    0.4031   -4.7142 H         1 <0>         0.4447
@<TRIPOS>BOND
     1    1    6 ar
     2    1    2 ar
     3    1   25 1
     4    2    3 ar
     5    2   26 1
     6    3    4 ar
     7    3   24 1
     8    4    5 ar
     9    4   27 1
    10    5    6 ar
    11    5   28 1
    12    6    7 1
    13    7    8 1
    14    7   29 1
    15    7   30 1
    16    8   12 1
    17    8    9 1
    18    9   10 1
    19    9   31 1
    20    9   32 1
    21   10   23 1
    22   10   11 1
    23   10   18 1
    24   11   16 ar
    25   11   12 ar
    26   12   13 ar
    27   13   14 ar
    28   13   33 1
    29   14   15 ar
    30   14   34 1
    31   15   16 ar
    32   15   17 1
    33   16   35 1
    34   18   19 2
    35   18   20 am
    36   20   21 am
    37   20   36 1
    38   21   22 2
    39   21   23 am
    40   23   37 1
@<TRIPOS>MOLECULE
CHEMBL281620__3
   36    39     0     0     0
SMALL
USER_CHARGES

@<TRIPOS>ATOM
      1 C1         -0.0167    1.3782    0.0096 C.ar      1 <0>        -0.0744
      2 C2          1.1703    2.0860    0.0021 C.ar      1 <0>        -0.1544
      3 C3          2.3786    1.4101   -0.0131 C.ar      1 <0>         0.0971
      4 C4          2.3962    0.0256   -0.0207 C.ar      1 <0>        -0.1545
      5 C5          1.2079   -0.6800   -0.0132 C.ar      1 <0>        -0.0724
      6 C6          0.0021   -0.0041    0.0020 C.ar      1 <0>        -0.1173
      7 C7         -1.2930   -0.7747    0.0103 C.3       1 <0>         0.1824
      8 N1         -1.7258   -1.0170   -1.3682 N.pl3     1 <0>        -0.6179
      9 C8         -2.5848   -0.1200   -2.1514 C.3       1 <0>         0.1382
     10 C9         -2.7373   -0.8104   -3.5060 C.3       1 <0>         0.1329
     11 C10        -1.9423   -2.0819   -3.4019 C.ar      1 <0>        -0.1102
     12 C11        -1.3768   -2.1339   -2.1343 C.ar      1 <0>         0.2010
     13 C12        -0.5788   -3.2260   -1.7919 C.ar      1 <0>        -0.1597
     14 C13        -0.3538   -4.2378   -2.7012 C.ar      1 <0>        -0.1056
     15 C14        -0.9188   -4.1767   -3.9636 C.ar      1 <0>         0.0388
     16 C15        -1.7180   -3.1004   -4.3082 C.ar      1 <0>        -0.0739
     17 F1         -0.6972   -5.1686   -4.8537 F         1 <0>        -0.1468
     18 C16        -4.1822   -1.0787   -3.8340 C.2       1 <0>         0.4726
     19 O1         -5.0518   -1.8145   -3.1229 O.3       1 <0>        -0.6306
     20 N2         -4.4152   -0.4456   -4.9554 N.2       1 <0>        -0.6713
     21 C17        -3.3335    0.2005   -5.4131 C.2       1 <0>         0.6603
     22 O2         -3.3156    0.8558   -6.4384 O.2       1 <0>        -0.5890
     23 N3         -2.2661    0.0385   -4.6019 N.am      1 <0>        -0.7596
     24 F2          3.5396    2.1009   -0.0209 F         1 <0>        -0.1421
     25 H1         -0.9592    1.9052    0.0260 H         1 <0>         0.1325
     26 H2          1.1554    3.1659    0.0077 H         1 <0>         0.1346
     27 H3          3.3381   -0.5027   -0.0329 H         1 <0>         0.1343
     28 H4          1.2213   -1.7599   -0.0195 H         1 <0>         0.1320
     29 H5         -1.1453   -1.7280    0.5176 H         1 <0>         0.0872
     30 H6         -2.0553   -0.1984    0.5345 H         1 <0>         0.0897
     31 H7         -3.5566   -0.0094   -1.6702 H         1 <0>         0.0834
     32 H8         -2.1076    0.8524   -2.2726 H         1 <0>         0.0714
     33 H9         -0.1345   -3.2791   -0.8089 H         1 <0>         0.1235
     34 H10         0.2650   -5.0797   -2.4281 H         1 <0>         0.1328
     35 H11        -2.1585   -3.0510   -5.2930 H         1 <0>         0.1292
     36 H12        -1.3765    0.4067   -4.7199 H         1 <0>         0.4057
@<TRIPOS>BOND
     1    1    6 ar
     2    1    2 ar
     3    1   25 1
     4    2    3 ar
     5    2   26 1
     6    3    4 ar
     7    3   24 1
     8    4    5 ar
     9    4   27 1
    10    5    6 ar
    11    5   28 1
    12    6    7 1
    13    7    8 1
    14    7   29 1
    15    7   30 1
    16    8   12 1
    17    8    9 1
    18    9   10 1
    19    9   31 1
    20    9   32 1
    21   10   23 1
    22   10   11 1
    23   10   18 1
    24   11   16 ar
    25   11   12 ar
    26   12   13 ar
    27   13   14 ar
    28   13   33 1
    29   14   15 ar
    30   14   34 1
    31   15   16 ar
    32   15   17 1
    33   16   35 1
    34   18   19 1
    35   18   20 2
    36   20   21 1
    37   21   22 2
    38   21   23 am
    39   23   36 1
@<TRIPOS>MOLECULE
CHEMBL20685
   39    43     0     0     0
SMALL
USER_CHARGES

@<TRIPOS>ATOM
      1 C1         -0.0164    1.3570    0.0095 C.ar      1 <0>        -0.1092
      2 C2          1.1559    2.1003    0.0023 C.ar      1 <0>        -0.0910
      3 C3          2.3751    1.4492   -0.0129 C.ar      1 <0>        -0.0661
      4 C4          2.4044    0.0758   -0.0205 C.ar      1 <0>        -0.1620
      5 C5          1.2262   -0.7047   -0.0135 C.ar      1 <0>         0.0764
      6 C6          0.0021   -0.0041    0.0020 C.ar      1 <0>        -0.0565
      7 N1          1.4635   -2.0326   -0.0233 N.2       1 <0>        -0.4945
      8 C7          2.6693   -2.5212   -0.0378 C.2       1 <0>         0.0635
      9 S1          3.6694   -1.1675   -0.0399 S.3       1 <0>         0.1012
     10 C8          3.0782   -3.9717   -0.0496 C.3       1 <0>         0.2289
     11 N2          3.1970   -4.4343   -1.4345 N.pl3     1 <0>        -0.6137
     12 C9          2.1064   -5.0213   -2.2229 C.3       1 <0>         0.1295
     13 C10         2.7321   -5.3356   -3.5813 C.3       1 <0>         0.1654
     14 C11         4.1656   -4.8951   -3.4751 C.ar      1 <0>        -0.1719
     15 C12         4.3639   -4.3764   -2.2019 C.ar      1 <0>         0.2219
     16 C13         5.6260   -3.8916   -1.8564 C.ar      1 <0>        -0.1612
     17 C14         6.6588   -3.9236   -2.7691 C.ar      1 <0>        -0.0413
     18 C15         6.4508   -4.4368   -4.0370 C.ar      1 <0>        -0.0831
     19 C16         5.2054   -4.9291   -4.3841 C.ar      1 <0>        -0.0249
     20 Cl1         7.7525   -4.4749   -5.1849 Cl        1 <0>        -0.0624
     21 C17         2.0124   -4.6287   -4.7000 C.2       1 <0>         0.5411
     22 O1          1.8562   -3.4342   -4.8357 O.2       1 <0>        -0.4422
     23 N3          1.5791   -5.6108   -5.5202 N.am      1 <0>        -0.6798
     24 C18         1.9290   -6.8216   -5.0666 C.2       1 <0>         0.7064
     25 O2          1.6529   -7.8613   -5.6322 O.2       1 <0>        -0.5301
     26 N4          2.6221   -6.7569   -3.9116 N.am      1 <0>        -0.7087
     27 H1         -0.9661    1.8710    0.0259 H         1 <0>         0.1365
     28 H2          1.1157    3.1795    0.0081 H         1 <0>         0.1408
     29 H3          3.2953    2.0145   -0.0190 H         1 <0>         0.1360
     30 H4         -0.9285   -0.5522    0.0083 H         1 <0>         0.1336
     31 H5          4.0384   -4.0826    0.4542 H         1 <0>         0.1141
     32 H6          2.3252   -4.5656    0.4686 H         1 <0>         0.1198
     33 H7          1.7460   -5.9351   -1.7505 H         1 <0>         0.1018
     34 H8          1.2924   -4.3054   -2.3365 H         1 <0>         0.0927
     35 H9          5.7948   -3.4895   -0.8684 H         1 <0>         0.1332
     36 H10         7.6327   -3.5466   -2.4938 H         1 <0>         0.1429
     37 H11         5.0418   -5.3292   -5.3739 H         1 <0>         0.1313
     38 H12         1.0768   -5.4582   -6.3358 H         1 <0>         0.4367
     39 H13         2.9766   -7.5025   -3.4024 H         1 <0>         0.4452
@<TRIPOS>BOND
     1    1    6 ar
     2    1    2 ar
     3    1   27 1
     4    2    3 ar
     5    2   28 1
     6    3    4 ar
     7    3   29 1
     8    4    9 1
     9    4    5 ar
    10    5    6 ar
    11    5    7 1
    12    6   30 1
    13    7    8 2
    14    8    9 1
    15    8   10 1
    16   10   11 1
    17   10   31 1
    18   10   32 1
    19   11   15 1
    20   11   12 1
    21   12   13 1
    22   12   33 1
    23   12   34 1
    24   13   26 1
    25   13   14 1
    26   13   21 1
    27   14   19 ar
    28   14   15 ar
    29   15   16 ar
    30   16   17 ar
    31   16   35 1
    32   17   18 ar
    33   17   36 1
    34   18   19 ar
    35   18   20 1
    36   19   37 1
    37   21   22 2
    38   21   23 am
    39   23   24 am
    40   23   38 1
    41   24   25 2
    42   24   26 am
    43   26   39 1
@<TRIPOS>MOLECULE
CHEMBL20685__1
   38    42     0     0     0
SMALL
USER_CHARGES

@<TRIPOS>ATOM
      1 C1         -0.0164    1.3570    0.0095 C.ar      1 <0>        -0.1117
      2 C2          1.1559    2.1003    0.0023 C.ar      1 <0>        -0.0998
      3 C3          2.3751    1.4492   -0.0129 C.ar      1 <0>        -0.0646
      4 C4          2.4044    0.0758   -0.0205 C.ar      1 <0>        -0.1667
      5 C5          1.2262   -0.7047   -0.0135 C.ar      1 <0>         0.0843
      6 C6          0.0021   -0.0041    0.0020 C.ar      1 <0>        -0.0573
      7 N1          1.4635   -2.0326   -0.0233 N.2       1 <0>        -0.4979
      8 C7          2.6693   -2.5212   -0.0378 C.2       1 <0>         0.0807
      9 S1          3.6694   -1.1675   -0.0399 S.3       1 <0>         0.0956
     10 C8          3.0782   -3.9717   -0.0496 C.3       1 <0>         0.2287
     11 N2          3.1970   -4.4343   -1.4345 N.pl3     1 <0>        -0.6143
     12 C9          2.1063   -5.0213   -2.2229 C.3       1 <0>         0.1390
     13 C10         2.7324   -5.3359   -3.5809 C.3       1 <0>         0.1335
     14 C11         4.1656   -4.8953   -3.4752 C.ar      1 <0>        -0.1189
     15 C12         4.3639   -4.3764   -2.2019 C.ar      1 <0>         0.2052
     16 C13         5.6260   -3.8915   -1.8565 C.ar      1 <0>        -0.1694
     17 C14         6.6587   -3.9232   -2.7693 C.ar      1 <0>        -0.0637
     18 C15         6.4507   -4.4364   -4.0372 C.ar      1 <0>        -0.0819
     19 C16         5.2054   -4.9291   -4.3842 C.ar      1 <0>        -0.0329
     20 Cl1         7.7522   -4.4735   -5.1854 Cl        1 <0>        -0.0814
     21 C17         2.0119   -4.6343   -4.7015 C.2       1 <0>         0.4722
     22 O1          1.8391   -3.3110   -4.8510 O.3       1 <0>        -0.6287
     23 N3          1.5894   -5.5812   -5.4999 N.2       1 <0>        -0.6714
     24 C18         1.9272   -6.8043   -5.0675 C.2       1 <0>         0.6607
     25 O2          1.6407   -7.8345   -5.6485 O.2       1 <0>        -0.5889
     26 N4          2.6225   -6.7582   -3.9108 N.am      1 <0>        -0.7593
     27 H1         -0.9661    1.8710    0.0259 H         1 <0>         0.1331
     28 H2          1.1157    3.1795    0.0081 H         1 <0>         0.1368
     29 H3          3.2953    2.0145   -0.0190 H         1 <0>         0.1329
     30 H4         -0.9285   -0.5522    0.0083 H         1 <0>         0.1326
     31 H5          4.0384   -4.0826    0.4542 H         1 <0>         0.1070
     32 H6          2.3252   -4.5656    0.4686 H         1 <0>         0.1141
     33 H7          1.7457   -5.9350   -1.7505 H         1 <0>         0.0784
     34 H8          1.2925   -4.3053   -2.3370 H         1 <0>         0.0832
     35 H9          5.7948   -3.4894   -0.8685 H         1 <0>         0.1231
     36 H10         7.6326   -3.5461   -2.4940 H         1 <0>         0.1328
     37 H11         5.0420   -5.3295   -5.3738 H         1 <0>         0.1286
     38 H12         2.9744   -7.5079   -3.4059 H         1 <0>         0.4061
@<TRIPOS>BOND
     1    1    6 ar
     2    1    2 ar
     3    1   27 1
     4    2    3 ar
     5    2   28 1
     6    3    4 ar
     7    3   29 1
     8    4    9 1
     9    4    5 ar
    10    5    6 ar
    11    5    7 1
    12    6   30 1
    13    7    8 2
    14    8    9 1
    15    8   10 1
    16   10   11 1
    17   10   31 1
    18   10   32 1
    19   11   15 1
    20   11   12 1
    21   12   13 1
    22   12   33 1
    23   12   34 1
    24   13   26 1
    25   13   14 1
    26   13   21 1
    27   14   19 ar
    28   14   15 ar
    29   15   16 ar
    30   16   17 ar
    31   16   35 1
    32   17   18 ar
    33   17   36 1
    34   18   19 ar
    35   18   20 1
    36   19   37 1
    37   21   22 1
    38   21   23 2
    39   23   24 1
    40   24   25 2
    41   24   26 am
    42   26   38 1
@<TRIPOS>MOLECULE
CHEMBL20685__2
   39    43     0     0     0
SMALL
USER_CHARGES

@<TRIPOS>ATOM
      1 C1         -0.0164    1.3570    0.0095 C.ar      1 <0>        -0.1088
      2 C2          1.1559    2.1003    0.0023 C.ar      1 <0>        -0.0907
      3 C3          2.3751    1.4492   -0.0129 C.ar      1 <0>        -0.0662
      4 C4          2.4044    0.0758   -0.0205 C.ar      1 <0>        -0.1631
      5 C5          1.2262   -0.7047   -0.0135 C.ar      1 <0>         0.0753
      6 C6          0.0021   -0.0041    0.0020 C.ar      1 <0>        -0.0568
      7 N1          1.4635   -2.0326   -0.0233 N.2       1 <0>        -0.4953
      8 C7          2.6693   -2.5212   -0.0378 C.2       1 <0>         0.0647
      9 S1          3.6694   -1.1675   -0.0399 S.3       1 <0>         0.1012
     10 C8          3.0782   -3.9717   -0.0496 C.3       1 <0>         0.2280
     11 N2          3.1970   -4.4343   -1.4345 N.pl3     1 <0>        -0.6133
     12 C9          2.1064   -5.0213   -2.2229 C.3       1 <0>         0.1295
     13 C10         2.7308   -5.3311   -3.5829 C.3       1 <0>         0.1648
     14 C11         4.1652   -4.8938   -3.4756 C.ar      1 <0>        -0.1718
     15 C12         4.3639   -4.3764   -2.2019 C.ar      1 <0>         0.2220
     16 C13         5.6261   -3.8921   -1.8563 C.ar      1 <0>        -0.1613
     17 C14         6.6593   -3.9251   -2.7686 C.ar      1 <0>        -0.0413
     18 C15         6.4515   -4.4392   -4.0362 C.ar      1 <0>        -0.0832
     19 C16         5.2055   -4.9297   -4.3839 C.ar      1 <0>        -0.0247
     20 Cl1         7.7541   -4.4803   -5.1830 Cl        1 <0>        -0.0625
     21 C17         2.6173   -6.7937   -3.9248 C.2       1 <0>         0.5434
     22 O1          3.0564   -7.7327   -3.2961 O.2       1 <0>        -0.4424
     23 N3          1.9212   -6.8351   -5.0818 N.am      1 <0>        -0.6792
     24 C18         1.5896   -5.6071   -5.5015 C.2       1 <0>         0.7063
     25 O2          0.9609   -5.3866   -6.5180 O.2       1 <0>        -0.5302
     26 N4          2.0314   -4.6429   -4.6686 N.am      1 <0>        -0.7097
     27 H1         -0.9661    1.8710    0.0259 H         1 <0>         0.1367
     28 H2          1.1157    3.1795    0.0081 H         1 <0>         0.1409
     29 H3          3.2953    2.0145   -0.0190 H         1 <0>         0.1360
     30 H4         -0.9285   -0.5522    0.0083 H         1 <0>         0.1338
     31 H5          4.0384   -4.0826    0.4542 H         1 <0>         0.1145
     32 H6          2.3252   -4.5656    0.4686 H         1 <0>         0.1203
     33 H7          1.7482   -5.9370   -1.7523 H         1 <0>         0.0971
     34 H8          1.2909   -4.3065   -2.3336 H         1 <0>         0.0976
     35 H9          5.7948   -3.4894   -0.8684 H         1 <0>         0.1331
     36 H10         7.6333   -3.5484   -2.4932 H         1 <0>         0.1429
     37 H11         5.0420   -5.3298   -5.3736 H         1 <0>         0.1313
     38 H12         1.6904   -7.6525   -5.5505 H         1 <0>         0.4371
     39 H13         1.9096   -3.6858   -4.7686 H         1 <0>         0.4442
@<TRIPOS>BOND
     1    1    6 ar
     2    1    2 ar
     3    1   27 1
     4    2    3 ar
     5    2   28 1
     6    3    4 ar
     7    3   29 1
     8    4    9 1
     9    4    5 ar
    10    5    6 ar
    11    5    7 1
    12    6   30 1
    13    7    8 2
    14    8    9 1
    15    8   10 1
    16   10   11 1
    17   10   31 1
    18   10   32 1
    19   11   15 1
    20   11   12 1
    21   12   13 1
    22   12   33 1
    23   12   34 1
    24   13   26 1
    25   13   14 1
    26   13   21 1
    27   14   19 ar
    28   14   15 ar
    29   15   16 ar
    30   16   17 ar
    31   16   35 1
    32   17   18 ar
    33   17   36 1
    34   18   19 ar
    35   18   20 1
    36   19   37 1
    37   21   22 2
    38   21   23 am
    39   23   24 am
    40   23   38 1
    41   24   25 2
    42   24   26 am
    43   26   39 1
@<TRIPOS>MOLECULE
CHEMBL20685__3
   38    42     0     0     0
SMALL
USER_CHARGES

@<TRIPOS>ATOM
      1 C1         -0.0164    1.3570    0.0095 C.ar      1 <0>        -0.1110
      2 C2          1.1559    2.1003    0.0023 C.ar      1 <0>        -0.0999
      3 C3          2.3751    1.4492   -0.0129 C.ar      1 <0>        -0.0641
      4 C4          2.4044    0.0758   -0.0205 C.ar      1 <0>        -0.1696
      5 C5          1.2262   -0.7047   -0.0135 C.ar      1 <0>         0.0822
      6 C6          0.0021   -0.0041    0.0020 C.ar      1 <0>        -0.0593
      7 N1          1.4635   -2.0326   -0.0233 N.2       1 <0>        -0.5013
      8 C7          2.6693   -2.5212   -0.0378 C.2       1 <0>         0.0842
      9 S1          3.6694   -1.1675   -0.0399 S.3       1 <0>         0.0962
     10 C8          3.0782   -3.9717   -0.0496 C.3       1 <0>         0.2265
     11 N2          3.1970   -4.4343   -1.4345 N.pl3     1 <0>        -0.6134
     12 C9          2.1063   -5.0213   -2.2229 C.3       1 <0>         0.1392
     13 C10         2.7308   -5.3305   -3.5828 C.3       1 <0>         0.1333
     14 C11         4.1652   -4.8937   -3.4758 C.ar      1 <0>        -0.1189
     15 C12         4.3639   -4.3764   -2.2019 C.ar      1 <0>         0.2053
     16 C13         5.6263   -3.8928   -1.8561 C.ar      1 <0>        -0.1695
     17 C14         6.6595   -3.9258   -2.7684 C.ar      1 <0>        -0.0634
     18 C15         6.4516   -4.4395   -4.0361 C.ar      1 <0>        -0.0822
     19 C16         5.2057   -4.9300   -4.3838 C.ar      1 <0>        -0.0323
     20 Cl1         7.7539   -4.4796   -5.1832 Cl        1 <0>        -0.0813
     21 C17         2.6146   -6.7912   -3.9292 C.2       1 <0>         0.4733
     22 O1          3.1016   -7.8307   -3.2325 O.3       1 <0>        -0.6295
     23 N3          1.9405   -6.8378   -5.0499 N.2       1 <0>        -0.6703
     24 C18         1.5962   -5.6198   -5.4916 C.2       1 <0>         0.6609
     25 O2          0.9659   -5.4196   -6.5131 O.2       1 <0>        -0.5887
     26 N4          2.0311   -4.6414   -4.6688 N.am      1 <0>        -0.7597
     27 H1         -0.9661    1.8710    0.0259 H         1 <0>         0.1334
     28 H2          1.1157    3.1795    0.0081 H         1 <0>         0.1372
     29 H3          3.2953    2.0145   -0.0190 H         1 <0>         0.1332
     30 H4         -0.9285   -0.5522    0.0083 H         1 <0>         0.1326
     31 H5          4.0384   -4.0826    0.4542 H         1 <0>         0.1087
     32 H6          2.3252   -4.5656    0.4686 H         1 <0>         0.1165
     33 H7          1.7484   -5.9372   -1.7526 H         1 <0>         0.0875
     34 H8          1.2908   -4.3067   -2.3335 H         1 <0>         0.0746
     35 H9          5.7950   -3.4901   -0.8682 H         1 <0>         0.1230
     36 H10         7.6335   -3.5494   -2.4929 H         1 <0>         0.1328
     37 H11         5.0422   -5.3304   -5.3735 H         1 <0>         0.1287
     38 H12         1.9064   -3.6853   -4.7746 H         1 <0>         0.4051
@<TRIPOS>BOND
     1    1    6 ar
     2    1    2 ar
     3    1   27 1
     4    2    3 ar
     5    2   28 1
     6    3    4 ar
     7    3   29 1
     8    4    9 1
     9    4    5 ar
    10    5    6 ar
    11    5    7 1
    12    6   30 1
    13    7    8 2
    14    8    9 1
    15    8   10 1
    16   10   11 1
    17   10   31 1
    18   10   32 1
    19   11   15 1
    20   11   12 1
    21   12   13 1
    22   12   33 1
    23   12   34 1
    24   13   26 1
    25   13   14 1
    26   13   21 1
    27   14   19 ar
    28   14   15 ar
    29   15   16 ar
    30   16   17 ar
    31   16   35 1
    32   17   18 ar
    33   17   36 1
    34   18   19 ar
    35   18   20 1
    36   19   37 1
    37   21   22 1
    38   21   23 2
    39   23   24 1
    40   24   25 2
    41   24   26 am
    42   26   38 1
@<TRIPOS>MOLECULE
CHEMBL422647
   43    46     0     0     0
SMALL
USER_CHARGES

@<TRIPOS>ATOM
      1 C1          2.0112   -1.9928    2.0100 C.3       1 <0>        -0.1143
      2 C2          0.9750   -1.6807    0.9612 C.ar      1 <0>        -0.0246
      3 C3          1.0350   -2.2940   -0.2741 C.ar      1 <0>        -0.1254
      4 C4          0.0850   -2.0082   -1.2376 C.ar      1 <0>        -0.0943
      5 C5         -0.9302   -1.1074   -0.9696 C.ar      1 <0>        -0.1346
      6 C6         -0.9997   -0.4886    0.2619 C.ar      1 <0>        -0.0766
      7 C7         -0.0484   -0.7772    1.2385 C.ar      1 <0>        -0.0359
      8 C8         -0.1218   -0.1198    2.5671 C.2       1 <0>         0.2948
      9 N1          0.0059   -0.7364    3.7557 N.2       1 <0>        -0.4911
     10 C9         -0.1098    0.1293    4.7219 C.2       1 <0>         0.2754
     11 O1         -0.3169    1.3389    4.1858 O.3       1 <0>        -0.0947
     12 N2         -0.3162    1.1586    2.7775 N.2       1 <0>        -0.3392
     13 C10        -0.0248   -0.1783    6.1948 C.3       1 <0>         0.2239
     14 N3          1.3661   -0.0591    6.6391 N.am      1 <0>        -0.4449
     15 C11         1.8113    1.1317    7.0915 C.2       1 <0>         0.5200
     16 O2          1.0695    2.0971    7.1314 O.2       1 <0>        -0.5302
     17 C12         3.2064    1.2415    7.5351 C.ar      1 <0>        -0.1333
     18 C13         3.7375    2.4380    8.0150 C.ar      1 <0>        -0.0554
     19 C14         5.0543    2.4800    8.4175 C.ar      1 <0>        -0.1264
     20 C15         5.8532    1.3458    8.3490 C.ar      1 <0>        -0.0911
     21 C16         5.3539    0.1622    7.8820 C.ar      1 <0>        -0.0995
     22 C17         4.0227    0.0893    7.4674 C.ar      1 <0>        -0.0436
     23 C18         3.4388   -1.1525    6.9601 C.2       1 <0>         0.1289
     24 N4          2.1936   -1.1812    6.5886 N.2       1 <0>        -0.1221
     25 C19         4.2796   -2.4002    6.8741 C.3       1 <0>        -0.1342
     26 C20         3.4476   -3.5296    6.3234 C.2       1 <0>         0.4887
     27 O3          2.2801   -3.3390    6.0282 O.co2     1 <0>        -0.6454
     28 O4          3.9419   -4.6339    6.1731 O.co2     1 <0>        -0.7047
     29 H1          1.6352   -2.7733    2.6713 H         1 <0>         0.0996
     30 H2          2.9258   -2.3358    1.5263 H         1 <0>         0.0664
     31 H3          2.2221   -1.0948    2.5908 H         1 <0>         0.0584
     32 H4          1.8254   -2.9980   -0.4886 H         1 <0>         0.1323
     33 H5          0.1360   -2.4897   -2.2030 H         1 <0>         0.1271
     34 H6         -1.6696   -0.8878   -1.7256 H         1 <0>         0.1283
     35 H7         -1.7925    0.2147    0.4701 H         1 <0>         0.1259
     36 H8         -0.6450    0.5259    6.7494 H         1 <0>         0.1290
     37 H9         -0.3780   -1.1936    6.3749 H         1 <0>         0.1483
     38 H10         3.1222    3.3239    8.0704 H         1 <0>         0.1386
     39 H11         5.4700    3.4046    8.7900 H         1 <0>         0.1308
     40 H12         6.8834    1.3999    8.6688 H         1 <0>         0.1308
     41 H13         5.9859   -0.7122    7.8339 H         1 <0>         0.1412
     42 H14         5.1297   -2.2207    6.2159 H         1 <0>         0.0858
     43 H15         4.6394   -2.6652    7.8683 H         1 <0>         0.0870
@<TRIPOS>BOND
     1    1    2 1
     2    1   29 1
     3    1   30 1
     4    1   31 1
     5    2    7 ar
     6    2    3 ar
     7    3    4 ar
     8    3   32 1
     9    4    5 ar
    10    4   33 1
    11    5    6 ar
    12    5   34 1
    13    6    7 ar
    14    6   35 1
    15    7    8 1
    16    8   12 2
    17    8    9 1
    18    9   10 2
    19   10   11 1
    20   10   13 1
    21   11   12 1
    22   13   14 1
    23   13   36 1
    24   13   37 1
    25   14   24 1
    26   14   15 am
    27   15   16 2
    28   15   17 1
    29   17   22 ar
    30   17   18 ar
    31   18   19 ar
    32   18   38 1
    33   19   20 ar
    34   19   39 1
    35   20   21 ar
    36   20   40 1
    37   21   22 ar
    38   21   41 1
    39   22   23 1
    40   23   24 2
    41   23   25 1
    42   25   26 1
    43   25   42 1
    44   25   43 1
    45   26   27 2
    46   26   28 1
@<TRIPOS>MOLECULE
CHEMBL344526
   38    41     0     0     0
SMALL
USER_CHARGES

@<TRIPOS>ATOM
      1 C1         -0.0165    1.3627    0.0095 C.ar      1 <0>        -0.0948
      2 C2          1.1654    2.0924    0.0022 C.ar      1 <0>        -0.1290
      3 C3          2.3861    1.4540   -0.0134 C.ar      1 <0>        -0.0571
      4 C4          2.4294    0.0605   -0.0213 C.ar      1 <0>        -0.1319
      5 C5          1.2244   -0.6786   -0.0133 C.ar      1 <0>        -0.0440
      6 C6          0.0021   -0.0041    0.0020 C.ar      1 <0>        -0.1021
      7 C7          1.3000   -2.1396   -0.0224 C.2       1 <0>         0.1185
      8 N1          2.4575   -2.7306   -0.0371 N.2       1 <0>        -0.1293
      9 N2          3.6626   -2.0276   -0.0452 N.am      1 <0>        -0.4391
     10 C8          3.6977   -0.6787   -0.0384 C.2       1 <0>         0.5189
     11 O1          4.7616   -0.0856   -0.0461 O.2       1 <0>        -0.5254
     12 C9          4.9232   -2.7737   -0.0618 C.3       1 <0>         0.2178
     13 C10         5.3696   -3.0372    1.3533 C.2       1 <0>         0.0422
     14 C11         5.1282   -4.1634    2.0588 C.2       1 <0>        -0.0407
     15 N3          5.7007   -3.9990    3.2915 N.pl3     1 <0>        -0.3706
     16 C12         5.7690   -4.8031    4.3923 C.2       1 <0>         0.0844
     17 C13         6.4092   -4.3909    5.5060 C.2       1 <0>        -0.1478
     18 C14         7.0165   -3.1236    5.5467 C.2       1 <0>        -0.0263
     19 C15         6.9559   -2.3120    4.4550 C.2       1 <0>        -0.0595
     20 C16         6.2831   -2.7580    3.3004 C.2       1 <0>         0.2131
     21 N4          6.0747   -2.1984    2.1167 N.2       1 <0>        -0.4552
     22 Cl1         7.8390   -2.5960    6.9815 Cl        1 <0>        -0.0534
     23 C17         0.0356   -2.9595   -0.0143 C.3       1 <0>        -0.1316
     24 C18         0.3870   -4.4249   -0.0262 C.2       1 <0>         0.4911
     25 O2          1.5559   -4.7714   -0.0401 O.co2     1 <0>        -0.6548
     26 O3         -0.4975   -5.2640   -0.0221 O.co2     1 <0>        -0.7057
     27 H1         -0.9631    1.8823    0.0259 H         1 <0>         0.1287
     28 H2          1.1269    3.1717    0.0083 H         1 <0>         0.1287
     29 H3          3.3010    2.0277   -0.0197 H         1 <0>         0.1370
     30 H4         -0.9242   -0.5594    0.0075 H         1 <0>         0.1388
     31 H5          4.7775   -3.7219   -0.5793 H         1 <0>         0.1149
     32 H6          5.6841   -2.1901   -0.5800 H         1 <0>         0.1069
     33 H7          4.5848   -5.0311    1.7150 H         1 <0>         0.1981
     34 H8          5.3058   -5.7785    4.3716 H         1 <0>         0.1735
     35 H9          6.4549   -5.0371    6.3702 H         1 <0>         0.1583
     36 H10         7.4187   -1.3364    4.4742 H         1 <0>         0.1576
     37 H11        -0.5398   -2.7311    0.8829 H         1 <0>         0.0840
     38 H12        -0.5578   -2.7210   -0.8970 H         1 <0>         0.0855
@<TRIPOS>BOND
     1    1    6 ar
     2    1    2 ar
     3    1   27 1
     4    2    3 ar
     5    2   28 1
     6    3    4 ar
     7    3   29 1
     8    4   10 1
     9    4    5 ar
    10    5    6 ar
    11    5    7 1
    12    6   30 1
    13    7    8 2
    14    7   23 1
    15    8    9 1
    16    9   10 am
    17    9   12 1
    18   10   11 2
    19   12   13 1
    20   12   31 1
    21   12   32 1
    22   13   21 1
    23   13   14 2
    24   14   15 1
    25   14   33 1
    26   15   20 1
    27   15   16 1
    28   16   17 2
    29   16   34 1
    30   17   18 1
    31   17   35 1
    32   18   19 2
    33   18   22 1
    34   19   20 1
    35   19   36 1
    36   20   21 2
    37   23   24 1
    38   23   37 1
    39   23   38 1
    40   24   25 2
    41   24   26 1
@<TRIPOS>MOLECULE
CHEMBL344526__1
   39    42     0     0     0
SMALL
USER_CHARGES

@<TRIPOS>ATOM
      1 C1         -0.0165    1.3627    0.0095 C.ar      1 <0>        -0.0858
      2 C2          1.1654    2.0924    0.0022 C.ar      1 <0>        -0.1186
      3 C3          2.3861    1.4540   -0.0134 C.ar      1 <0>        -0.0564
      4 C4          2.4294    0.0605   -0.0213 C.ar      1 <0>        -0.1370
      5 C5          1.2244   -0.6786   -0.0133 C.ar      1 <0>        -0.0526
      6 C6          0.0021   -0.0041    0.0020 C.ar      1 <0>        -0.0954
      7 C7          1.3000   -2.1396   -0.0224 C.2       1 <0>         0.1536
      8 N1          2.4575   -2.7306   -0.0371 N.2       1 <0>        -0.1545
      9 N2          3.6626   -2.0276   -0.0452 N.am      1 <0>        -0.4542
     10 C8          3.6977   -0.6787   -0.0384 C.2       1 <0>         0.5268
     11 O1          4.7616   -0.0856   -0.0461 O.2       1 <0>        -0.5382
     12 C9          4.9232   -2.7737   -0.0618 C.3       1 <0>         0.1924
     13 C10         5.3696   -3.0372    1.3533 C.2       1 <0>         0.0904
     14 C11         6.2324   -2.2769    2.0618 C.2       1 <0>        -0.0002
     15 N3          6.3677   -2.8596    3.2933 N.pl3     1 <0>        -0.3316
     16 C12         7.1001   -2.5275    4.3961 C.2       1 <0>         0.1040
     17 C13         7.0528   -3.2902    5.5080 C.2       1 <0>        -0.1151
     18 C14         6.2452   -4.4404    5.5448 C.2       1 <0>         0.0384
     19 C15         5.5093   -4.7823    4.4514 C.2       1 <0>        -0.1109
     20 C16         5.5708   -3.9750    3.2985 C.cat     1 <0>         0.3120
     21 N4          4.9736   -4.0581    2.1177 N.pl3     1 <0>        -0.4767
     22 Cl1         6.1869   -5.4200    6.9768 Cl        1 <0>         0.0096
     23 C17         0.0356   -2.9595   -0.0143 C.3       1 <0>        -0.1404
     24 C18         0.3870   -4.4249   -0.0262 C.2       1 <0>         0.4945
     25 O2          1.5559   -4.7714   -0.0401 O.co2     1 <0>        -0.6698
     26 O3         -0.4975   -5.2640   -0.0221 O.co2     1 <0>        -0.6905
     27 H1         -0.9631    1.8823    0.0259 H         1 <0>         0.1356
     28 H2          1.1269    3.1717    0.0083 H         1 <0>         0.1350
     29 H3          3.3010    2.0277   -0.0197 H         1 <0>         0.1400
     30 H4         -0.9242   -0.5594    0.0075 H         1 <0>         0.1437
     31 H5          4.7775   -3.7219   -0.5793 H         1 <0>         0.1339
     32 H6          5.6841   -2.1901   -0.5800 H         1 <0>         0.1393
     33 H7          6.7239   -1.3778    1.7205 H         1 <0>         0.2327
     34 H8          7.7238   -1.6459    4.3784 H         1 <0>         0.2078
     35 H9          7.6380   -3.0162    6.3733 H         1 <0>         0.1888
     36 H10         4.8852   -5.6636    4.4677 H         1 <0>         0.1892
     37 H11        -0.5398   -2.7311    0.8829 H         1 <0>         0.0917
     38 H12        -0.5578   -2.7210   -0.8970 H         1 <0>         0.0943
     39 H13         4.3503   -4.7517    1.8506 H         1 <0>         0.4742
@<TRIPOS>BOND
     1    1    6 ar
     2    1    2 ar
     3    1   27 1
     4    2    3 ar
     5    2   28 1
     6    3    4 ar
     7    3   29 1
     8    4   10 1
     9    4    5 ar
    10    5    6 ar
    11    5    7 1
    12    6   30 1
    13    7    8 2
    14    7   23 1
    15    8    9 1
    16    9   10 am
    17    9   12 1
    18   10   11 2
    19   12   13 1
    20   12   31 1
    21   12   32 1
    22   13   21 1
    23   13   14 2
    24   14   15 1
    25   14   33 1
    26   15   20 1
    27   15   16 1
    28   16   17 2
    29   16   34 1
    30   17   18 1
    31   17   35 1
    32   18   19 2
    33   18   22 1
    34   19   20 1
    35   19   36 1
    36   20   21 2
    37   21   39 1
    38   23   24 1
    39   23   37 1
    40   23   38 1
    41   24   25 2
    42   24   26 1
@<TRIPOS>MOLECULE
CHEMBL476198
   33    35     0     0     0
SMALL
USER_CHARGES

@<TRIPOS>ATOM
      1 C1          0.0402    1.6047    0.1390 C.ar      1 <0>        -0.0014
      2 C2          1.2406    2.2445   -0.0850 C.ar      1 <0>        -0.1313
      3 C3          2.4290    1.5222   -0.0642 C.ar      1 <0>         0.1952
      4 C4          2.3824    0.1415    0.1905 C.ar      1 <0>        -0.2133
      5 C5          1.1633   -0.4952    0.4122 C.ar      1 <0>         0.0386
      6 C6         -0.0021    0.2406    0.3855 C.ar      1 <0>        -0.0808
      7 N1         -1.3021   -0.4271    0.6205 N.pl3     1 <0>         0.0381
      8 O1         -2.3251    0.2167    0.5976 O.2       1 <0>        -0.1538
      9 O2         -1.3408   -1.6162    0.8355 O.3       1 <0>        -0.1527
     10 C7          3.6566   -0.6054    0.2233 C.2       1 <0>         0.4438
     11 O3          3.6925   -1.8229    0.2121 O.2       1 <0>        -0.4362
     12 C8          4.8860    0.2158    0.2703 C.2       1 <0>        -0.2580
     13 C9          4.7700    1.5655    0.0116 C.2       1 <0>         0.1730
     14 O4          3.6060    2.1379   -0.2891 O.3       1 <0>        -0.2013
     15 C10         6.1861   -0.3857    0.5822 C.2       1 <0>         0.0707
     16 C11         6.9224    0.0885    1.6212 C.2       1 <0>        -0.1788
     17 C12         6.5750    1.1017    2.6334 C.2       1 <0>         0.5558
     18 O5          5.4937    1.6612    2.6325 O.2       1 <0>        -0.4758
     19 N2          7.4957    1.3729    3.5430 N.am      1 <0>        -0.5428
     20 C13         8.6925    0.7509    3.5406 C.2       1 <0>         0.5698
     21 O6          9.6238    0.9008    4.3088 O.2       1 <0>        -0.4128
     22 S1          8.5755   -0.3510    2.1405 S.3       1 <0>        -0.0737
     23 C14         7.2096    2.3715    4.5761 C.3       1 <0>         0.0217
     24 C15         6.5834    1.6955    5.7685 C.2       1 <0>         0.4900
     25 O7          6.3936    0.4912    5.7565 O.co2     1 <0>        -0.6811
     26 O8          6.2665    2.3529    6.7452 O.co2     1 <0>        -0.6832
     27 H1         -0.8779    2.1734    0.1269 H         1 <0>         0.1704
     28 H2          1.2582    3.3071   -0.2772 H         1 <0>         0.1698
     29 H3          1.1314   -1.5577    0.6028 H         1 <0>         0.1724
     30 H4          5.6563    2.1812    0.0545 H         1 <0>         0.2076
     31 H5          6.5586   -1.2057   -0.0138 H         1 <0>         0.1639
     32 H6          8.1374    2.8567    4.8792 H         1 <0>         0.0965
     33 H7          6.5220    3.1182    4.1791 H         1 <0>         0.0997
@<TRIPOS>BOND
     1    1    6 ar
     2    1    2 ar
     3    1   27 1
     4    2    3 ar
     5    2   28 1
     6    3   14 1
     7    3    4 ar
     8    4    5 ar
     9    4   10 1
    10    5    6 ar
    11    5   29 1
    12    6    7 1
    13    7    8 2
    14    7    9 1
    15   10   11 2
    16   10   12 1
    17   12   13 2
    18   12   15 1
    19   13   14 1
    20   13   30 1
    21   15   16 2
    22   15   31 1
    23   16   22 1
    24   16   17 1
    25   17   18 2
    26   17   19 am
    27   19   20 am
    28   19   23 1
    29   20   21 2
    30   20   22 1
    31   23   24 1
    32   23   32 1
    33   23   33 1
    34   24   25 2
    35   24   26 1
@<TRIPOS>MOLECULE
CHEMBL12253
   23    24     0     0     0
SMALL
USER_CHARGES

@<TRIPOS>ATOM
      1 C1         -0.0168    1.3891    0.0097 C.ar      1 <0>        -0.1687
      2 C2          1.1506    2.0964    0.0023 C.ar      1 <0>        -0.0251
      3 C3          2.3744    1.4182   -0.0129 C.ar      1 <0>        -0.1375
      4 C4          3.6425    2.1506   -0.0206 C.2       1 <0>         0.0948
      5 C5          4.7970    1.4348   -0.0350 C.2       1 <0>        -0.2820
      6 C6          4.7485    0.0256   -0.0421 C.2       1 <0>         0.5189
      7 O1          5.7911   -0.6039   -0.0550 O.2       1 <0>        -0.4844
      8 O2          3.5829   -0.6399   -0.0347 O.3       1 <0>        -0.2767
      9 C7          2.3999    0.0108   -0.0207 C.ar      1 <0>         0.1598
     10 C8          1.2048   -0.6918   -0.0135 C.ar      1 <0>        -0.1680
     11 C9          0.0021   -0.0041    0.0020 C.ar      1 <0>         0.1515
     12 O3         -1.1674   -0.6932    0.0095 O.3       1 <0>        -0.4946
     13 C10         3.6661    3.6574   -0.0132 C.3       1 <0>        -0.1730
     14 C11         3.5375    4.1687   -1.4249 C.2       1 <0>         0.5023
     15 O4          3.4361    3.3825   -2.3512 O.co2     1 <0>        -0.6814
     16 O5          3.5349    5.3687   -1.6408 O.co2     1 <0>        -0.6884
     17 H1         -0.9613    1.9127    0.0260 H         1 <0>         0.1382
     18 H2          1.1297    3.1762    0.0079 H         1 <0>         0.1441
     19 H3          5.7495    1.9438   -0.0413 H         1 <0>         0.1570
     20 H4          1.2112   -1.7718   -0.0196 H         1 <0>         0.1454
     21 H5         -1.5147   -0.8881   -0.8717 H         1 <0>         0.3956
     22 H6          2.8354    4.0308    0.5856 H         1 <0>         0.0845
     23 H7          4.6069    4.0039    0.4145 H         1 <0>         0.0875
@<TRIPOS>BOND
     1    1   11 ar
     2    1    2 ar
     3    1   17 1
     4    2    3 ar
     5    2   18 1
     6    3    9 ar
     7    3    4 1
     8    4    5 2
     9    4   13 1
    10    5    6 1
    11    5   19 1
    12    6    7 2
    13    6    8 1
    14    8    9 1
    15    9   10 ar
    16   10   11 ar
    17   10   20 1
    18   11   12 1
    19   12   21 1
    20   13   14 1
    21   13   22 1
    22   13   23 1
    23   14   15 2
    24   14   16 1
@<TRIPOS>MOLECULE
CHEMBL131150
   26    28     0     0     0
SMALL
USER_CHARGES

@<TRIPOS>ATOM
      1 C1         -0.0178    1.4608    0.0101 C.3       1 <0>         0.0677
      2 N1          0.0021   -0.0041    0.0020 N.am      1 <0>        -0.5699
      3 C2          0.0052   -0.6503   -1.1740 C.2       1 <0>         0.5969
      4 O1         -0.0108    0.0024   -2.2005 O.2       1 <0>        -0.5015
      5 C3          0.0276   -2.1086   -1.2682 C.2       1 <0>        -0.0911
      6 C4          0.0377   -2.9773   -2.3381 C.2       1 <0>        -0.0781
      7 C5          0.0603   -4.2733   -1.8135 C.2       1 <0>        -0.2142
      8 C6          0.0633   -4.1747   -0.4617 C.2       1 <0>         0.0668
      9 N2          0.0432   -2.8732   -0.1169 N.pl3     1 <0>        -0.3954
     10 C7          0.0355   -2.1708    1.1646 C.3       1 <0>         0.0315
     11 C8          0.0222   -0.6667    1.1774 C.2       1 <0>         0.5622
     12 O2          0.0255   -0.0595    2.2268 O.2       1 <0>        -0.4624
     13 C9          1.2544   -2.6391    1.9744 C.3       1 <0>        -0.1743
     14 C10         0.6234   -3.3498    3.1549 C.2       1 <0>         0.4825
     15 O3          1.2979   -3.9370    4.1550 O.3       1 <0>        -0.6196
     16 N3         -0.6725   -3.3025    3.0503 N.2       1 <0>        -0.6683
     17 C11        -1.1362   -2.6664    1.9736 C.2       1 <0>         0.5283
     18 O4         -2.3071   -2.5122    1.6918 O.2       1 <0>        -0.5071
     19 H1          1.0048    1.8381    0.0023 H         1 <0>         0.0726
     20 H2         -0.5450    1.8219   -0.8730 H         1 <0>         0.0926
     21 H3         -0.5280    1.8123    0.9069 H         1 <0>         0.0899
     22 H4          0.0296   -2.7081   -3.3840 H         1 <0>         0.1510
     23 H5          0.0732   -5.1901   -2.3842 H         1 <0>         0.1537
     24 H6          0.0789   -5.0059    0.2277 H         1 <0>         0.1716
     25 H7          1.8642   -3.3282    1.3901 H         1 <0>         0.1086
     26 H8          1.8462   -1.7869    2.3085 H         1 <0>         0.1061
@<TRIPOS>BOND
     1    1    2 1
     2    1   19 1
     3    1   20 1
     4    1   21 1
     5    2   11 am
     6    2    3 am
     7    3    4 2
     8    3    5 1
     9    5    9 1
    10    5    6 2
    11    6    7 1
    12    6   22 1
    13    7    8 2
    14    7   23 1
    15    8    9 1
    16    8   24 1
    17    9   10 1
    18   10   17 1
    19   10   11 1
    20   10   13 1
    21   11   12 2
    22   13   14 1
    23   13   25 1
    24   13   26 1
    25   14   15 1
    26   14   16 2
    27   16   17 1
    28   17   18 2
@<TRIPOS>MOLECULE
CHEMBL131150__1
   26    28     0     0     0
SMALL
USER_CHARGES

@<TRIPOS>ATOM
      1 C1         -0.0178    1.4608    0.0101 C.3       1 <0>         0.0676
      2 N1          0.0021   -0.0041    0.0020 N.am      1 <0>        -0.5700
      3 C2          0.0052   -0.6503   -1.1740 C.2       1 <0>         0.5969
      4 O1         -0.0055    0.0025   -2.2005 O.2       1 <0>        -0.5015
      5 C3          0.0216   -2.1087   -1.2682 C.2       1 <0>        -0.0911
      6 C4          0.0249   -2.9775   -2.3380 C.2       1 <0>        -0.0782
      7 C5          0.0424   -4.2736   -1.8134 C.2       1 <0>        -0.2142
      8 C6          0.0497   -4.1749   -0.4616 C.2       1 <0>         0.0668
      9 N2          0.0377   -2.8732   -0.1169 N.pl3     1 <0>        -0.3954
     10 C7          0.0394   -2.1707    1.1646 C.3       1 <0>         0.0313
     11 C8          0.0222   -0.6667    1.1774 C.2       1 <0>         0.5623
     12 O2          0.0223   -0.0596    2.2268 O.2       1 <0>        -0.4623
     13 C9         -1.1585   -2.6713    1.9863 C.3       1 <0>        -0.1736
     14 C10        -0.4971   -3.3648    3.1604 C.2       1 <0>         0.4824
     15 O3         -1.1457   -3.9708    4.1664 O.3       1 <0>        -0.6197
     16 N3          0.7960   -3.2829    3.0430 N.2       1 <0>        -0.6684
     17 C11         1.2319   -2.6348    1.9618 C.2       1 <0>         0.5280
     18 O4          2.3954   -2.4497    1.6683 O.2       1 <0>        -0.5071
     19 H1          1.0048    1.8381    0.0023 H         1 <0>         0.0730
     20 H2         -0.5450    1.8219   -0.8730 H         1 <0>         0.0925
     21 H3         -0.5280    1.8123    0.9069 H         1 <0>         0.0897
     22 H4          0.0156   -2.7082   -3.3839 H         1 <0>         0.1510
     23 H5          0.0490   -5.1905   -2.3841 H         1 <0>         0.1537
     24 H6          0.0627   -5.0061    0.2278 H         1 <0>         0.1715
     25 H7         -1.7695   -1.8352    2.3264 H         1 <0>         0.1059
     26 H8         -1.7554   -3.3766    1.4080 H         1 <0>         0.1087
@<TRIPOS>BOND
     1    1    2 1
     2    1   19 1
     3    1   20 1
     4    1   21 1
     5    2   11 am
     6    2    3 am
     7    3    4 2
     8    3    5 1
     9    5    9 1
    10    5    6 2
    11    6    7 1
    12    6   22 1
    13    7    8 2
    14    7   23 1
    15    8    9 1
    16    8   24 1
    17    9   10 1
    18   10   17 1
    19   10   11 1
    20   10   13 1
    21   11   12 2
    22   13   14 1
    23   13   25 1
    24   13   26 1
    25   14   15 1
    26   14   16 2
    27   16   17 1
    28   17   18 2
@<TRIPOS>MOLECULE
CHEMBL197712
   23    24     0     0     0
SMALL
USER_CHARGES

@<TRIPOS>ATOM
      1 C1         -0.0167    1.3780    0.0096 C.ar      1 <0>        -0.0467
      2 C2          1.1705    2.0859    0.0021 C.ar      1 <0>        -0.1332
      3 C3          2.3784    1.4113   -0.0135 C.ar      1 <0>         0.0642
      4 C4          2.3978    0.0281   -0.0210 C.ar      1 <0>        -0.6528
      5 C5          1.2094   -0.6798   -0.0130 C.ar      1 <0>         0.0597
      6 C6          0.0021   -0.0041    0.0020 C.ar      1 <0>        -0.1341
      7 Cl1         1.2327   -2.4156   -0.0231 Cl        1 <0>        -0.0165
      8 S1          3.9357   -0.8316   -0.0415 S.o2      1 <0>         2.5990
      9 O1          3.6767   -2.1139   -0.5965 O.2       1 <0>        -0.9308
     10 O2          4.8922    0.0601   -0.5974 O.2       1 <0>        -0.9142
     11 C7          4.4077   -1.0948    1.6356 C.ar      1 <0>        -0.6215
     12 C8          4.0074   -2.2469    2.2965 C.ar      1 <0>        -0.0282
     13 C9          4.4021   -2.4119    3.6156 C.ar      1 <0>        -0.2370
     14 C10         5.1762   -1.4099    4.1947 C.ar      1 <0>         0.3861
     15 N1          5.5095   -0.3444    3.4836 N.ar      1 <0>        -0.3426
     16 N2          5.1460   -0.1994    2.2612 N.ar      1 <0>        -0.0892
     17 O3          5.5869   -1.5250    5.4829 O.3       1 <0>        -0.6682
     18 Cl2         3.8693    2.3005   -0.0241 Cl        1 <0>         0.0018
     19 H1         -0.9592    1.9050    0.0259 H         1 <0>         0.1473
     20 H2          1.1552    3.1657    0.0080 H         1 <0>         0.1479
     21 H3         -0.9258   -0.5566    0.0082 H         1 <0>         0.1467
     22 H4          3.4059   -2.9930    1.7986 H         1 <0>         0.1328
     23 H5          4.1177   -3.2900    4.1764 H         1 <0>         0.1295
@<TRIPOS>BOND
     1    1    6 ar
     2    1    2 ar
     3    1   19 1
     4    2    3 ar
     5    2   20 1
     6    3    4 ar
     7    3   18 1
     8    4    5 ar
     9    4    8 1
    10    5    6 ar
    11    5    7 1
    12    6   21 1
    13    8    9 2
    14    8   10 2
    15    8   11 1
    16   11   12 ar
    17   11   16 ar
    18   12   13 ar
    19   12   22 1
    20   13   14 ar
    21   13   23 1
    22   14   17 1
    23   14   15 ar
    24   15   16 ar
@<TRIPOS>MOLECULE
CHEMBL349508
   31    32     0     0     0
SMALL
USER_CHARGES

@<TRIPOS>ATOM
      1 C1         -0.0167    1.3780    0.0096 C.ar      1 <0>        -0.0347
      2 C2          1.1708    2.0857    0.0021 C.ar      1 <0>        -0.1164
      3 C3          2.3780    1.4104   -0.0131 C.ar      1 <0>         0.0218
      4 C4          2.3961    0.0268   -0.0207 C.ar      1 <0>        -0.0482
      5 C5          1.2084   -0.6796   -0.0132 C.ar      1 <0>        -0.0105
      6 C6          0.0021   -0.0041    0.0020 C.ar      1 <0>        -0.1124
      7 C7         -1.2928   -0.7750    0.0108 C.3       1 <0>         0.1638
      8 N1         -1.7261   -1.0173   -1.3675 N.am      1 <0>        -0.5768
      9 C8         -2.5156   -0.1818   -2.0709 C.2       1 <0>         0.5291
     10 O1         -2.9835    0.8722   -1.6968 O.2       1 <0>        -0.4862
     11 C9         -2.6962   -0.8335   -3.4276 C.3       1 <0>         0.0640
     12 N2         -1.9141   -2.0773   -3.3210 N.am      1 <0>        -0.5850
     13 C10        -1.3823   -2.0928   -2.0854 C.2       1 <0>         0.6965
     14 O2         -0.6717   -2.9855   -1.6668 O.2       1 <0>        -0.5448
     15 C11        -1.7448   -3.0965   -4.3596 C.3       1 <0>         0.0778
     16 C12        -0.5369   -2.7643   -5.1973 C.2       1 <0>         0.4801
     17 O3          0.1215   -1.7684   -4.9496 O.co2     1 <0>        -0.6840
     18 O4         -0.2180   -3.4913   -6.1226 O.co2     1 <0>        -0.6925
     19 N3          3.6873   -0.6964   -0.0374 N.pl3     1 <0>         0.0337
     20 O5          3.7030   -1.9053   -0.0441 O.2       1 <0>        -0.1515
     21 O6          4.7263   -0.0784   -0.0445 O.3       1 <0>        -0.1409
     22 Cl1         3.8696    2.2984   -0.0231 Cl        1 <0>        -0.0090
     23 H1         -0.9592    1.9051    0.0260 H         1 <0>         0.1560
     24 H2          1.1560    3.1655    0.0077 H         1 <0>         0.1582
     25 H3          1.2224   -1.7595   -0.0195 H         1 <0>         0.1688
     26 H4         -1.1447   -1.7283    0.5180 H         1 <0>         0.1128
     27 H5         -2.0551   -0.1989    0.5353 H         1 <0>         0.1119
     28 H6         -3.7477   -1.0560   -3.6092 H         1 <0>         0.1184
     29 H7         -2.2965   -0.1955   -4.2158 H         1 <0>         0.1250
     30 H8         -1.6060   -4.0716   -3.8926 H         1 <0>         0.0894
     31 H9         -2.6312   -3.1201   -4.9935 H         1 <0>         0.0853
@<TRIPOS>BOND
     1    1    6 ar
     2    1    2 ar
     3    1   23 1
     4    2    3 ar
     5    2   24 1
     6    3    4 ar
     7    3   22 1
     8    4    5 ar
     9    4   19 1
    10    5    6 ar
    11    5   25 1
    12    6    7 1
    13    7    8 1
    14    7   26 1
    15    7   27 1
    16    8   13 am
    17    8    9 am
    18    9   10 2
    19    9   11 1
    20   11   12 1
    21   11   28 1
    22   11   29 1
    23   12   13 am
    24   12   15 1
    25   13   14 2
    26   15   16 1
    27   15   30 1
    28   15   31 1
    29   16   17 2
    30   16   18 1
    31   19   20 2
    32   19   21 1
@<TRIPOS>MOLECULE
CHEMBL68586
   35    36     0     0     0
SMALL
USER_CHARGES

@<TRIPOS>ATOM
      1 C1         -0.0184    1.5028    0.0103 C.3       1 <0>        -0.1204
      2 C2          0.0021   -0.0041    0.0020 C.2       1 <0>        -0.0278
      3 C3         -1.1611   -0.7202    0.0036 C.2       1 <0>        -0.1991
      4 C4         -1.0673   -2.1287   -0.0045 C.2       1 <0>         0.4765
      5 O1         -2.0773   -2.8141   -0.0038 O.2       1 <0>        -0.5597
      6 N1          0.1483   -2.7082   -0.0133 N.am      1 <0>        -0.3511
      7 N2          1.2269   -2.0118   -0.0141 N.2       1 <0>        -0.1197
      8 C5          1.2177   -0.7077   -0.0134 C.2       1 <0>         0.0619
      9 C6          2.5206    0.0497   -0.0223 C.3       1 <0>        -0.1300
     10 C7          3.6688   -0.9262   -0.0384 C.2       1 <0>         0.4867
     11 O2          3.4495   -2.1255   -0.0422 O.co2     1 <0>        -0.6451
     12 O3          4.8170   -0.5164   -0.0475 O.co2     1 <0>        -0.7117
     13 C8          0.2424   -4.1702   -0.0216 C.3       1 <0>         0.1627
     14 C9          0.2680   -4.6638   -1.4453 C.ar      1 <0>        -0.1400
     15 C10        -0.8851   -5.1566   -2.0268 C.ar      1 <0>        -0.0559
     16 C11        -0.8625   -5.6090   -3.3325 C.ar      1 <0>        -0.1192
     17 C12         0.3144   -5.5696   -4.0589 C.ar      1 <0>        -0.0540
     18 C13         1.4689   -5.0775   -3.4788 C.ar      1 <0>        -0.1442
     19 C14         1.4451   -4.6185   -2.1726 C.ar      1 <0>         0.1451
     20 F1          2.5712   -4.1323   -1.6064 F         1 <0>        -0.0817
     21 Br1         0.3440   -6.1896   -5.8452 Br        1 <0>        -0.0461
     22 C15        -2.5005   -0.0295    0.0141 C.3       1 <0>        -0.0834
     23 H1          1.0042    1.8801    0.0026 H         1 <0>         0.0812
     24 H2         -0.5455    1.8639   -0.8728 H         1 <0>         0.0771
     25 H3         -0.5286    1.8543    0.9071 H         1 <0>         0.0783
     26 H4          2.5678    0.6809   -0.9096 H         1 <0>         0.0781
     27 H5          2.5851    0.6720    0.8702 H         1 <0>         0.0787
     28 H6          1.1562   -4.4784    0.4863 H         1 <0>         0.1163
     29 H7         -0.6200   -4.5927    0.4940 H         1 <0>         0.1116
     30 H8         -1.8041   -5.1883   -1.4604 H         1 <0>         0.1458
     31 H9         -1.7640   -5.9938   -3.7860 H         1 <0>         0.1377
     32 H10         2.3878   -5.0474   -4.0454 H         1 <0>         0.1458
     33 H11        -2.8284    0.1430   -1.0110 H         1 <0>         0.0669
     34 H12        -3.2288   -0.6568    0.5279 H         1 <0>         0.0711
     35 H13        -2.4129    0.9251    0.5330 H         1 <0>         0.0675
@<TRIPOS>BOND
     1    1    2 1
     2    1   23 1
     3    1   24 1
     4    1   25 1
     5    2    8 1
     6    2    3 2
     7    3    4 1
     8    3   22 1
     9    4    5 2
    10    4    6 am
    11    6    7 1
    12    6   13 1
    13    7    8 2
    14    8    9 1
    15    9   10 1
    16    9   26 1
    17    9   27 1
    18   10   11 2
    19   10   12 1
    20   13   14 1
    21   13   28 1
    22   13   29 1
    23   14   19 ar
    24   14   15 ar
    25   15   16 ar
    26   15   30 1
    27   16   17 ar
    28   16   31 1
    29   17   18 ar
    30   17   21 1
    31   18   19 ar
    32   18   32 1
    33   19   20 1
    34   22   33 1
    35   22   34 1
    36   22   35 1
@<TRIPOS>MOLECULE
CHEMBL161556
   32    33     0     0     0
SMALL
USER_CHARGES

@<TRIPOS>ATOM
      1 C1         -0.0167    1.3780    0.0096 C.ar      1 <0>        -0.0309
      2 C2          1.1708    2.0857    0.0021 C.ar      1 <0>        -0.1188
      3 C3          2.3780    1.4104   -0.0131 C.ar      1 <0>         0.0214
      4 C4          2.3961    0.0268   -0.0207 C.ar      1 <0>        -0.0495
      5 C5          1.2084   -0.6796   -0.0132 C.ar      1 <0>        -0.0111
      6 C6          0.0021   -0.0041    0.0020 C.ar      1 <0>        -0.1094
      7 C7         -1.2928   -0.7750    0.0108 C.3       1 <0>         0.1548
      8 N1         -1.7261   -1.0173   -1.3675 N.am      1 <0>        -0.5547
      9 C8         -2.5183   -0.1210   -1.9898 C.2       1 <0>         0.5562
     10 O1         -2.8754    0.8894   -1.4115 O.2       1 <0>        -0.5386
     11 C9         -2.9306   -0.3653   -3.3220 C.2       1 <0>        -0.3353
     12 C10        -2.5201   -1.4932   -3.9404 C.2       1 <0>         0.2127
     13 N2         -1.7165   -2.3775   -3.2736 N.am      1 <0>        -0.4953
     14 C11        -1.3274   -2.1312   -2.0095 C.2       1 <0>         0.6956
     15 O2         -0.6094   -2.9282   -1.4372 O.2       1 <0>        -0.5340
     16 C12        -1.2714   -3.6015   -3.9444 C.3       1 <0>         0.0317
     17 C13         0.0310   -3.3394   -4.6557 C.2       1 <0>         0.4860
     18 O3          0.5403   -2.2327   -4.6070 O.co2     1 <0>        -0.6799
     19 O4          0.5755   -4.2340   -5.2800 O.co2     1 <0>        -0.6825
     20 N3          3.6873   -0.6964   -0.0374 N.pl3     1 <0>         0.0342
     21 O5          3.7030   -1.9053   -0.0441 O.2       1 <0>        -0.1512
     22 O6          4.7263   -0.0784   -0.0445 O.3       1 <0>        -0.1425
     23 Cl1         3.8696    2.2984   -0.0231 Cl        1 <0>        -0.0110
     24 H1         -0.9592    1.9051    0.0260 H         1 <0>         0.1591
     25 H2          1.1560    3.1655    0.0077 H         1 <0>         0.1575
     26 H3          1.2224   -1.7595   -0.0195 H         1 <0>         0.1691
     27 H4         -1.1447   -1.7283    0.5180 H         1 <0>         0.1127
     28 H5         -2.0551   -0.1989    0.5353 H         1 <0>         0.1169
     29 H6         -3.5653    0.3409   -3.8366 H         1 <0>         0.1662
     30 H7         -2.8248   -1.6966   -4.9564 H         1 <0>         0.1722
     31 H8         -1.1293   -4.3898   -3.2051 H         1 <0>         0.1024
     32 H9         -2.0243   -3.9136   -4.6681 H         1 <0>         0.0960
@<TRIPOS>BOND
     1    1    6 ar
     2    1    2 ar
     3    1   24 1
     4    2    3 ar
     5    2   25 1
     6    3    4 ar
     7    3   23 1
     8    4    5 ar
     9    4   20 1
    10    5    6 ar
    11    5   26 1
    12    6    7 1
    13    7    8 1
    14    7   27 1
    15    7   28 1
    16    8   14 am
    17    8    9 am
    18    9   10 2
    19    9   11 1
    20   11   12 2
    21   11   29 1
    22   12   13 1
    23   12   30 1
    24   13   14 am
    25   13   16 1
    26   14   15 2
    27   16   17 1
    28   16   31 1
    29   16   32 1
    30   17   18 2
    31   17   19 1
    32   20   21 2
    33   20   22 1
@<TRIPOS>MOLECULE
CHEMBL143234
   37    40     0     0     0
SMALL
USER_CHARGES

@<TRIPOS>ATOM
      1 C1         -0.0165    1.3627    0.0095 C.ar      1 <0>        -0.0909
      2 C2          1.1654    2.0924    0.0022 C.ar      1 <0>        -0.1265
      3 C3          2.3861    1.4540   -0.0134 C.ar      1 <0>        -0.0556
      4 C4          2.4294    0.0605   -0.0213 C.ar      1 <0>        -0.1338
      5 C5          1.2244   -0.6786   -0.0133 C.ar      1 <0>        -0.0432
      6 C6          0.0021   -0.0041    0.0020 C.ar      1 <0>        -0.0992
      7 C7          1.3000   -2.1396   -0.0224 C.2       1 <0>         0.1293
      8 N1          2.4575   -2.7306   -0.0371 N.2       1 <0>        -0.1234
      9 N2          3.6626   -2.0276   -0.0452 N.am      1 <0>        -0.4457
     10 C8          3.6977   -0.6787   -0.0384 C.2       1 <0>         0.5198
     11 O1          4.7616   -0.0856   -0.0461 O.2       1 <0>        -0.5318
     12 C9          4.9232   -2.7737   -0.0618 C.3       1 <0>         0.2277
     13 C10         5.3696   -3.0372    1.3533 C.2       1 <0>         0.2556
     14 N3          5.0512   -4.0871    2.0491 N.2       1 <0>        -0.4332
     15 C11         5.6291   -3.9914    3.2771 C.ar      1 <0>         0.0814
     16 C12         5.6317   -4.8085    4.4096 C.ar      1 <0>        -0.1012
     17 C13         6.3340   -4.4214    5.5311 C.ar      1 <0>         0.1278
     18 C14         7.0380   -3.2239    5.5407 C.ar      1 <0>        -0.1687
     19 C15         7.0434   -2.4070    4.4274 C.ar      1 <0>         0.1642
     20 C16         6.3412   -2.7835    3.2900 C.ar      1 <0>        -0.0413
     21 O2          6.1577   -2.2237    2.0732 O.3       1 <0>        -0.1910
     22 F1          7.7301   -1.2437    4.4447 F         1 <0>        -0.1203
     23 F2          6.3372   -5.2110    6.6272 F         1 <0>        -0.1225
     24 C17         0.0356   -2.9595   -0.0143 C.3       1 <0>        -0.1339
     25 C18         0.3870   -4.4249   -0.0262 C.2       1 <0>         0.4881
     26 O3          1.5559   -4.7714   -0.0401 O.co2     1 <0>        -0.6470
     27 O4         -0.4975   -5.2640   -0.0221 O.co2     1 <0>        -0.7045
     28 H1         -0.9631    1.8823    0.0259 H         1 <0>         0.1311
     29 H2          1.1269    3.1717    0.0083 H         1 <0>         0.1308
     30 H3          3.3010    2.0277   -0.0197 H         1 <0>         0.1383
     31 H4         -0.9242   -0.5594    0.0075 H         1 <0>         0.1416
     32 H5          4.7775   -3.7219   -0.5793 H         1 <0>         0.1508
     33 H6          5.6841   -2.1901   -0.5800 H         1 <0>         0.1274
     34 H7          5.0853   -5.7401    4.4071 H         1 <0>         0.1604
     35 H8          7.5842   -2.9297    6.4247 H         1 <0>         0.1650
     36 H9         -0.5398   -2.7311    0.8829 H         1 <0>         0.0866
     37 H10        -0.5578   -2.7210   -0.8970 H         1 <0>         0.0879
@<TRIPOS>BOND
     1    1    6 ar
     2    1    2 ar
     3    1   28 1
     4    2    3 ar
     5    2   29 1
     6    3    4 ar
     7    3   30 1
     8    4   10 1
     9    4    5 ar
    10    5    6 ar
    11    5    7 1
    12    6   31 1
    13    7    8 2
    14    7   24 1
    15    8    9 1
    16    9   10 am
    17    9   12 1
    18   10   11 2
    19   12   13 1
    20   12   32 1
    21   12   33 1
    22   13   21 1
    23   13   14 2
    24   14   15 1
    25   15   20 ar
    26   15   16 ar
    27   16   17 ar
    28   16   34 1
    29   17   18 ar
    30   17   23 1
    31   18   19 ar
    32   18   35 1
    33   19   20 ar
    34   19   22 1
    35   20   21 1
    36   24   25 1
    37   24   36 1
    38   24   37 1
    39   25   26 2
    40   25   27 1
@<TRIPOS>MOLECULE
CHEMBL6944
   30    31     0     0     0
SMALL
USER_CHARGES

@<TRIPOS>ATOM
      1 C1         -0.0187    1.5258    0.0104 C.3       1 <0>        -0.1470
      2 C2          0.0021   -0.0041    0.0020 C.3       1 <0>         0.0639
      3 O1          0.6932   -0.4774    1.1597 O.3       1 <0>        -0.3705
      4 C3          0.8011   -1.8139    1.3045 C.2       1 <0>         0.5371
      5 O2          0.3213   -2.5564    0.4702 O.2       1 <0>        -0.5350
      6 C4          1.4972   -2.3713    2.4682 C.2       1 <0>        -0.4652
      7 C5          1.6879   -3.6815    2.7423 C.2       1 <0>         0.2826
      8 C6          2.4369   -3.8087    4.0110 C.2       1 <0>         0.5135
      9 O3          2.7637   -4.8596    4.5257 O.2       1 <0>        -0.5274
     10 N1          2.7034   -2.5883    4.5107 N.am      1 <0>        -0.6144
     11 C7          2.1453   -1.5921    3.5887 C.3       1 <0>         0.1944
     12 C8          3.4272   -2.3040    5.7523 C.3       1 <0>         0.2168
     13 C9          4.8998   -2.1784    5.4578 C.2       1 <0>        -0.1531
     14 C10         5.6137   -1.0736    5.1306 C.2       1 <0>        -0.1521
     15 C11         6.9714   -1.1962    4.9019 C.2       1 <0>        -0.1575
     16 C12         7.5488   -2.4176    5.0116 C.2       1 <0>        -0.1877
     17 S1          6.1582   -3.4448    5.4569 S.3       1 <0>         0.0578
     18 O4          1.2608   -4.7124    1.9775 O.3       1 <0>        -0.6123
     19 H1          1.0039    1.9031    0.0027 H         1 <0>         0.0612
     20 H2         -0.5459    1.8868   -0.8726 H         1 <0>         0.0686
     21 H3         -0.5289    1.8773    0.9072 H         1 <0>         0.0614
     22 H4         -1.0205   -0.3814    0.0098 H         1 <0>         0.0558
     23 H5          0.5123   -0.3556   -0.8948 H         1 <0>         0.0555
     24 H6          2.9390   -0.9579    3.1938 H         1 <0>         0.0555
     25 H7          1.4003   -0.9847    4.1026 H         1 <0>         0.0583
     26 H8          3.0615   -1.3708    6.1806 H         1 <0>         0.1021
     27 H9          3.2664   -3.1166    6.4608 H         1 <0>         0.0941
     28 H10         5.1289   -0.1120    5.0494 H         1 <0>         0.1326
     29 H11         7.5632   -0.3318    4.6394 H         1 <0>         0.1295
     30 H12         8.5826   -2.6963    4.8703 H         1 <0>         0.1814
@<TRIPOS>BOND
     1    1    2 1
     2    1   19 1
     3    1   20 1
     4    1   21 1
     5    2    3 1
     6    2   22 1
     7    2   23 1
     8    3    4 1
     9    4    5 2
    10    4    6 1
    11    6   11 1
    12    6    7 2
    13    7    8 1
    14    7   18 1
    15    8    9 2
    16    8   10 am
    17   10   11 1
    18   10   12 1
    19   11   24 1
    20   11   25 1
    21   12   13 1
    22   12   26 1
    23   12   27 1
    24   13   17 1
    25   13   14 2
    26   14   15 1
    27   14   28 1
    28   15   16 2
    29   15   29 1
    30   16   17 1
    31   16   30 1
@<TRIPOS>MOLECULE
CHEMBL69907
   35    38     0     0     0
SMALL
USER_CHARGES

@<TRIPOS>ATOM
      1 C1         -0.0166    1.3726    0.0096 C.ar      1 <0>        -0.1228
      2 C2          1.1699    2.0913    0.0021 C.ar      1 <0>        -0.0927
      3 C3          2.3838    1.4370   -0.0134 C.ar      1 <0>        -0.0911
      4 C4          2.4213    0.0508   -0.0212 C.ar      1 <0>         0.0163
      5 C5          1.2234   -0.6797   -0.0132 C.ar      1 <0>         0.0199
      6 C6          0.0021   -0.0041    0.0020 C.ar      1 <0>        -0.0590
      7 N1          1.5722   -1.9948   -0.0236 N.2       1 <0>        -0.4616
      8 C7          2.8682   -2.0841   -0.0370 C.2       1 <0>         0.2286
      9 O1          3.4191   -0.8601   -0.0359 O.3       1 <0>        -0.1994
     10 C8          3.6423   -3.3770   -0.0515 C.3       1 <0>         0.2427
     11 N2          3.8794   -3.7886   -1.4374 N.pl3     1 <0>        -0.4176
     12 C9          3.0477   -4.5812   -2.1851 C.ar      1 <0>         0.1365
     13 C10         1.8284   -5.2061   -1.9346 C.ar      1 <0>        -0.1256
     14 C11         1.2320   -5.9505   -2.9123 C.ar      1 <0>        -0.0673
     15 C12         1.8277   -6.0947   -4.1606 C.ar      1 <0>        -0.0785
     16 C13         3.0228   -5.4934   -4.4343 C.ar      1 <0>        -0.0169
     17 C14         3.6526   -4.7253   -3.4484 C.ar      1 <0>        -0.1477
     18 C15         4.8970   -3.9648   -3.3964 C.2       1 <0>         0.1804
     19 N3          4.9879   -3.4309   -2.2118 N.2       1 <0>        -0.2564
     20 C16         5.8956   -3.8183   -4.5155 C.3       1 <0>        -0.1227
     21 C17         5.5418   -2.6144   -5.3500 C.2       1 <0>         0.5028
     22 O2          4.5690   -1.9380   -5.0627 O.co2     1 <0>        -0.6832
     23 O3          6.2284   -2.3167   -6.3125 O.co2     1 <0>        -0.6947
     24 Cl1         1.0450   -7.0484   -5.3819 Cl        1 <0>        -0.0803
     25 H1         -0.9610    1.8963    0.0259 H         1 <0>         0.1371
     26 H2          1.1428    3.1709    0.0081 H         1 <0>         0.1406
     27 H3          3.3035    2.0032   -0.0199 H         1 <0>         0.1367
     28 H4         -0.9245   -0.5589    0.0075 H         1 <0>         0.1357
     29 H5          4.5975   -3.2342    0.4536 H         1 <0>         0.1261
     30 H6          3.0705   -4.1487    0.4639 H         1 <0>         0.1349
     31 H7          1.3556   -5.1026   -0.9691 H         1 <0>         0.1337
     32 H8          0.2866   -6.4332   -2.7133 H         1 <0>         0.1356
     33 H9          3.4794   -5.6100   -5.4061 H         1 <0>         0.1379
     34 H10         6.8939   -3.6898   -4.0971 H         1 <0>         0.0852
     35 H11         5.8755   -4.7117   -5.1396 H         1 <0>         0.0869
@<TRIPOS>BOND
     1    1    6 ar
     2    1    2 ar
     3    1   25 1
     4    2    3 ar
     5    2   26 1
     6    3    4 ar
     7    3   27 1
     8    4    9 1
     9    4    5 ar
    10    5    6 ar
    11    5    7 1
    12    6   28 1
    13    7    8 2
    14    8    9 1
    15    8   10 1
    16   10   11 1
    17   10   29 1
    18   10   30 1
    19   11   19 1
    20   11   12 1
    21   12   17 ar
    22   12   13 ar
    23   13   14 ar
    24   13   31 1
    25   14   15 ar
    26   14   32 1
    27   15   16 ar
    28   15   24 1
    29   16   17 ar
    30   16   33 1
    31   17   18 1
    32   18   19 2
    33   18   20 1
    34   20   21 1
    35   20   34 1
    36   20   35 1
    37   21   22 2
    38   21   23 1
@<TRIPOS>MOLECULE
CHEMBL73505
   35    38     0     0     0
SMALL
USER_CHARGES

@<TRIPOS>ATOM
      1 C1         -0.0168    1.3855    0.0097 C.ar      1 <0>        -0.1344
      2 C2          1.1767    2.0828    0.0020 C.ar      1 <0>        -0.0278
      3 C3          2.3634    1.3919   -0.0130 C.ar      1 <0>        -0.1880
      4 C4          2.4181   -0.0203   -0.0211 C.ar      1 <0>         0.1125
      5 C5          1.1841   -0.7033   -0.0123 C.ar      1 <0>        -0.0996
      6 C6          0.0021   -0.0041    0.0020 C.ar      1 <0>         0.1121
      7 F1         -1.1669   -0.6813    0.0095 F         1 <0>        -0.1340
      8 N1          3.6759   -0.5077   -0.0365 N.2       1 <0>        -0.5006
      9 C7          4.7200    0.2686   -0.0429 C.2       1 <0>         0.0792
     10 S1          4.0833    1.8265   -0.0281 S.3       1 <0>         0.1514
     11 C8          6.1717   -0.1358   -0.0597 C.3       1 <0>         0.2359
     12 N2          6.6281   -0.2595   -1.4463 N.pl3     1 <0>        -0.4154
     13 C9          6.5712   -1.4007   -2.2036 C.ar      1 <0>         0.1382
     14 C10         6.1171   -2.6955   -1.9641 C.ar      1 <0>        -0.1263
     15 C11         6.1979   -3.6378   -2.9496 C.ar      1 <0>        -0.0676
     16 C12         6.7302   -3.3219   -4.1949 C.ar      1 <0>        -0.0792
     17 C13         7.1830   -2.0607   -4.4578 C.ar      1 <0>        -0.0168
     18 C14         7.1101   -1.0782   -3.4638 C.ar      1 <0>        -0.1489
     19 C15         7.4888    0.3296   -3.3998 C.2       1 <0>         0.1811
     20 N3          7.1863    0.7695   -2.2118 N.2       1 <0>        -0.2583
     21 C16         8.1129    1.1327   -4.5118 C.3       1 <0>        -0.1227
     22 C17         7.0280    1.7691   -5.3419 C.2       1 <0>         0.5030
     23 O1          5.8566    1.5874   -5.0569 O.co2     1 <0>        -0.6828
     24 O2          7.3218    2.4657   -6.2984 O.co2     1 <0>        -0.6948
     25 Cl1         6.8202   -4.5422   -5.4264 Cl        1 <0>        -0.0807
     26 H1         -0.9570    1.9167    0.0260 H         1 <0>         0.1510
     27 H2          1.1759    3.1627    0.0075 H         1 <0>         0.1461
     28 H3          1.1685   -1.7832   -0.0183 H         1 <0>         0.1457
     29 H4          6.7657    0.6212    0.4522 H         1 <0>         0.1239
     30 H5          6.2880   -1.0934    0.4479 H         1 <0>         0.1226
     31 H6          5.7023   -2.9540   -1.0011 H         1 <0>         0.1319
     32 H7          5.8445   -4.6404   -2.7592 H         1 <0>         0.1346
     33 H8          7.5951   -1.8228   -5.4273 H         1 <0>         0.1375
     34 H9          8.7481    1.9098   -4.0865 H         1 <0>         0.0850
     35 H10         8.7140    0.4762   -5.1410 H         1 <0>         0.0861
@<TRIPOS>BOND
     1    1    6 ar
     2    1    2 ar
     3    1   26 1
     4    2    3 ar
     5    2   27 1
     6    3   10 1
     7    3    4 ar
     8    4    5 ar
     9    4    8 1
    10    5    6 ar
    11    5   28 1
    12    6    7 1
    13    8    9 2
    14    9   10 1
    15    9   11 1
    16   11   12 1
    17   11   29 1
    18   11   30 1
    19   12   20 1
    20   12   13 1
    21   13   18 ar
    22   13   14 ar
    23   14   15 ar
    24   14   31 1
    25   15   16 ar
    26   15   32 1
    27   16   17 ar
    28   16   25 1
    29   17   18 ar
    30   17   33 1
    31   18   19 1
    32   19   20 2
    33   19   21 1
    34   21   22 1
    35   21   34 1
    36   21   35 1
    37   22   23 2
    38   22   24 1
@<TRIPOS>MOLECULE
CHEMBL143551
   38    41     0     0     0
SMALL
USER_CHARGES

@<TRIPOS>ATOM
      1 C1         -0.0165    1.3627    0.0095 C.ar      1 <0>        -0.0925
      2 C2          1.1654    2.0924    0.0022 C.ar      1 <0>        -0.1272
      3 C3          2.3861    1.4540   -0.0134 C.ar      1 <0>        -0.0567
      4 C4          2.4294    0.0605   -0.0213 C.ar      1 <0>        -0.1331
      5 C5          1.2244   -0.6786   -0.0133 C.ar      1 <0>        -0.0437
      6 C6          0.0021   -0.0041    0.0020 C.ar      1 <0>        -0.1001
      7 C7          1.3000   -2.1396   -0.0224 C.2       1 <0>         0.1261
      8 N1          2.4575   -2.7306   -0.0371 N.2       1 <0>        -0.1297
      9 N2          3.6626   -2.0276   -0.0452 N.am      1 <0>        -0.4431
     10 C8          3.6977   -0.6787   -0.0384 C.2       1 <0>         0.5195
     11 O1          4.7616   -0.0856   -0.0461 O.2       1 <0>        -0.5344
     12 C9          4.9232   -2.7737   -0.0618 C.3       1 <0>         0.2133
     13 C10         5.3696   -3.0372    1.3533 C.2       1 <0>         0.0167
     14 C11         5.0416   -4.1194    2.0722 C.2       1 <0>        -0.1618
     15 C12         5.6923   -3.9560    3.3777 C.ar      1 <0>        -0.1208
     16 C13         5.7417   -4.7184    4.5440 C.ar      1 <0>        -0.0541
     17 C14         6.4671   -4.2639    5.6241 C.ar      1 <0>        -0.0565
     18 C15         7.1446   -3.0538    5.5525 C.ar      1 <0>        -0.0890
     19 C16         7.1027   -2.2914    4.4053 C.ar      1 <0>        -0.0952
     20 C17         6.3780   -2.7321    3.3050 C.ar      1 <0>         0.0588
     21 O2          6.1593   -2.2234    2.0754 O.3       1 <0>        -0.1807
     22 Cl1         6.5336   -5.2073    7.0799 Cl        1 <0>        -0.0698
     23 C18         0.0356   -2.9595   -0.0143 C.3       1 <0>        -0.1331
     24 C19         0.3870   -4.4249   -0.0262 C.2       1 <0>         0.4908
     25 O3          1.5559   -4.7714   -0.0401 O.co2     1 <0>        -0.6544
     26 O4         -0.4975   -5.2640   -0.0221 O.co2     1 <0>        -0.7035
     27 H1         -0.9631    1.8823    0.0259 H         1 <0>         0.1303
     28 H2          1.1269    3.1717    0.0083 H         1 <0>         0.1300
     29 H3          3.3010    2.0277   -0.0197 H         1 <0>         0.1374
     30 H4         -0.9242   -0.5594    0.0075 H         1 <0>         0.1406
     31 H5          4.7775   -3.7219   -0.5793 H         1 <0>         0.1346
     32 H6          5.6841   -2.1901   -0.5800 H         1 <0>         0.1104
     33 H7          4.4226   -4.9456    1.7550 H         1 <0>         0.1742
     34 H8          5.2145   -5.6593    4.6007 H         1 <0>         0.1406
     35 H9          7.7098   -2.7065    6.4047 H         1 <0>         0.1430
     36 H10         7.6331   -1.3516    4.3616 H         1 <0>         0.1399
     37 H11        -0.5398   -2.7311    0.8829 H         1 <0>         0.0864
     38 H12        -0.5578   -2.7210   -0.8970 H         1 <0>         0.0871
@<TRIPOS>BOND
     1    1    6 ar
     2    1    2 ar
     3    1   27 1
     4    2    3 ar
     5    2   28 1
     6    3    4 ar
     7    3   29 1
     8    4   10 1
     9    4    5 ar
    10    5    6 ar
    11    5    7 1
    12    6   30 1
    13    7    8 2
    14    7   23 1
    15    8    9 1
    16    9   10 am
    17    9   12 1
    18   10   11 2
    19   12   13 1
    20   12   31 1
    21   12   32 1
    22   13   21 1
    23   13   14 2
    24   14   15 1
    25   14   33 1
    26   15   20 ar
    27   15   16 ar
    28   16   17 ar
    29   16   34 1
    30   17   18 ar
    31   17   22 1
    32   18   19 ar
    33   18   35 1
    34   19   20 ar
    35   19   36 1
    36   20   21 1
    37   23   24 1
    38   23   37 1
    39   23   38 1
    40   24   25 2
    41   24   26 1
@<TRIPOS>MOLECULE
CHEMBL56453
   28    30     0     0     0
SMALL
USER_CHARGES

@<TRIPOS>ATOM
      1 C1         -0.0187    1.5258    0.0104 C.3       1 <0>        -0.1457
      2 C2          0.0021   -0.0041    0.0020 C.3       1 <0>         0.0885
      3 H1          0.5118   -0.3583   -0.8939 H         1 <0>         0.0973
      4 C3         -1.4364   -0.5393    0.0224 C.3       1 <0>        -0.1515
      5 C4         -1.3817   -2.0616   -0.0704 C.3       1 <0>         0.1757
      6 C5         -0.3650   -2.6147    0.8863 C.ar      1 <0>        -0.2154
      7 C6         -0.4043   -3.9599    1.2172 C.ar      1 <0>        -0.0096
      8 C7          0.5457   -4.4568    2.0987 C.ar      1 <0>        -0.1287
      9 C8          1.4967   -3.5972    2.6152 C.ar      1 <0>         0.1799
     10 N1          1.5054   -2.3224    2.2828 N.ar      1 <0>        -0.4814
     11 C9          0.6134   -1.8069    1.4458 C.ar      1 <0>         0.3730
     12 O1          0.6844   -0.4808    1.1621 O.3       1 <0>        -0.2876
     13 Cl1         0.5391   -6.1340    2.5465 Cl        1 <0>        -0.0397
     14 C10        -1.0642   -2.4907   -1.4844 C.2       1 <0>         0.5362
     15 O2         -0.0639   -2.2380   -2.1211 O.2       1 <0>        -0.4460
     16 N2         -2.1288   -3.2142   -1.8887 N.am      1 <0>        -0.6769
     17 C11        -3.0609   -3.2968   -0.9314 C.2       1 <0>         0.7049
     18 O3         -4.1101   -3.8967   -1.0595 O.2       1 <0>        -0.5265
     19 N3         -2.7053   -2.6407    0.1899 N.am      1 <0>        -0.7120
     20 H2          1.0039    1.9031    0.0027 H         1 <0>         0.0785
     21 H3         -0.5459    1.8868   -0.8726 H         1 <0>         0.0872
     22 H4         -0.5289    1.8773    0.9072 H         1 <0>         0.0729
     23 H5         -1.9249   -0.2450    0.9513 H         1 <0>         0.1080
     24 H6         -1.9895   -0.1389   -0.8272 H         1 <0>         0.1060
     25 H7         -1.1592   -4.6085    0.7979 H         1 <0>         0.1466
     26 H8          2.2415   -3.9750    3.3000 H         1 <0>         0.1814
     27 H9         -2.2088   -3.6238   -2.7643 H         1 <0>         0.4384
     28 H10        -3.2215   -2.5659    1.0077 H         1 <0>         0.4461
@<TRIPOS>BOND
     1    1    2 1
     2    1   20 1
     3    1   21 1
     4    1   22 1
     5    2    3 1
     6    2   12 1
     7    2    4 1
     8    4    5 1
     9    4   23 1
    10    4   24 1
    11    5   19 1
    12    5    6 1
    13    5   14 1
    14    6   11 ar
    15    6    7 ar
    16    7    8 ar
    17    7   25 1
    18    8    9 ar
    19    8   13 1
    20    9   10 ar
    21    9   26 1
    22   10   11 ar
    23   11   12 1
    24   14   15 2
    25   14   16 am
    26   16   17 am
    27   16   27 1
    28   17   18 2
    29   17   19 am
    30   19   28 1
@<TRIPOS>MOLECULE
CHEMBL79198
   25    27     0     0     0
SMALL
USER_CHARGES

@<TRIPOS>ATOM
      1 C1         -0.0167    1.3792    0.0096 C.ar      1 <0>        -0.0522
      2 C2          1.1698    2.0842    0.0021 C.ar      1 <0>        -0.1343
      3 C3          2.3854    1.4092   -0.0128 C.ar      1 <0>         0.1743
      4 C4          2.4020    0.0239   -0.0174 C.ar      1 <0>        -0.1738
      5 C5          1.2089   -0.6783   -0.0113 C.ar      1 <0>        -0.0511
      6 C6          0.0021   -0.0041    0.0020 C.ar      1 <0>        -0.0671
      7 Cl1        -1.4892   -0.8928    0.0097 Cl        1 <0>        -0.0556
      8 C7          3.6981   -0.7382   -0.0241 C.3       1 <0>         0.1217
      9 C8          4.8530    0.1683   -0.4413 C.3       1 <0>        -0.1557
     10 C9          4.7463    1.4806    0.3474 C.3       1 <0>         0.0594
     11 O1          3.5334    2.1354   -0.0261 O.3       1 <0>        -0.3016
     12 C10         3.9642   -1.3330    1.3392 C.2       1 <0>         0.5158
     13 O2          4.1111   -0.7378    2.3851 O.2       1 <0>        -0.4297
     14 N1          4.0025   -2.6684    1.1447 N.am      1 <0>        -0.6823
     15 C11         3.7971   -2.9661   -0.1455 C.2       1 <0>         0.6482
     16 O3          3.7829   -4.0983   -0.5849 O.2       1 <0>        -0.4579
     17 O4          3.6091   -1.8686   -0.8975 O.3       1 <0>        -0.2799
     18 H1         -0.9588    1.9070    0.0260 H         1 <0>         0.1498
     19 H2          1.1541    3.1641    0.0074 H         1 <0>         0.1524
     20 H3          1.2209   -1.7582   -0.0174 H         1 <0>         0.1332
     21 H4          5.8019   -0.3189   -0.2168 H         1 <0>         0.1053
     22 H5          4.7898    0.3757   -1.5095 H         1 <0>         0.1164
     23 H6          4.7324    1.2657    1.4159 H         1 <0>         0.0869
     24 H7          5.5962    2.1206    0.1104 H         1 <0>         0.1312
     25 H8          4.1577   -3.3230    1.8435 H         1 <0>         0.4466
@<TRIPOS>BOND
     1    1    6 ar
     2    1    2 ar
     3    1   18 1
     4    2    3 ar
     5    2   19 1
     6    3   11 1
     7    3    4 ar
     8    4    5 ar
     9    4    8 1
    10    5    6 ar
    11    5   20 1
    12    6    7 1
    13    8   17 1
    14    8    9 1
    15    8   12 1
    16    9   10 1
    17    9   21 1
    18    9   22 1
    19   10   11 1
    20   10   23 1
    21   10   24 1
    22   12   13 2
    23   12   14 am
    24   14   15 am
    25   14   25 1
    26   15   16 2
    27   15   17 1
@<TRIPOS>MOLECULE
CHEMBL334830
   36    39     0     0     0
SMALL
USER_CHARGES

@<TRIPOS>ATOM
      1 C1         -0.0163    1.3512    0.0095 C.2       1 <0>        -0.2137
      2 C2          1.3086    1.7982   -0.0008 C.2       1 <0>        -0.0783
      3 C3          2.1125    0.6789   -0.0150 C.2       1 <0>        -0.0882
      4 N1          1.2811   -0.4252   -0.0118 N.pl3     1 <0>        -0.3962
      5 C4          0.0021   -0.0041    0.0020 C.2       1 <0>         0.0659
      6 C5          1.9064   -1.7460   -0.0222 C.3       1 <0>         0.0333
      7 C6          1.3604   -2.5244   -1.2292 C.3       1 <0>        -0.1739
      8 C7          0.5969   -3.6618   -0.5808 C.2       1 <0>         0.4827
      9 O1         -0.0655   -4.6241   -1.2405 O.3       1 <0>        -0.6190
     10 N2          0.6830   -3.5625    0.7135 N.2       1 <0>        -0.6680
     11 C8          1.3934   -2.5263    1.1614 C.2       1 <0>         0.5283
     12 O2          1.5942   -2.2568    2.3281 O.2       1 <0>        -0.5068
     13 C9          3.4070   -1.8477   -0.0422 C.2       1 <0>         0.5654
     14 O3          3.9508   -2.9312   -0.0560 O.2       1 <0>        -0.4622
     15 N3          4.1382   -0.7136   -0.0449 N.am      1 <0>        -0.5639
     16 C10         3.5628    0.4985   -0.0310 C.2       1 <0>         0.5891
     17 O4          4.2752    1.4847   -0.0322 O.2       1 <0>        -0.4803
     18 C11         5.6000   -0.8083   -0.0631 C.3       1 <0>         0.1386
     19 C12         6.0840   -0.8330   -1.4901 C.ar      1 <0>        -0.1363
     20 C13         6.4207   -2.0344   -2.0850 C.ar      1 <0>        -0.0581
     21 C14         6.8642   -2.0579   -3.3938 C.ar      1 <0>        -0.1070
     22 C15         6.9721   -0.8789   -4.1098 C.ar      1 <0>        -0.0563
     23 C16         6.6362    0.3238   -3.5162 C.ar      1 <0>        -0.1366
     24 C17         6.1860    0.3470   -2.2070 C.ar      1 <0>         0.1299
     25 F1          5.8523    1.5209   -1.6277 F         1 <0>        -0.1047
     26 Br1         7.5796   -0.9124   -5.9003 Br        1 <0>        -0.0383
     27 H1         -0.8977    1.9751    0.0253 H         1 <0>         0.1534
     28 H2          1.6394    2.8263    0.0020 H         1 <0>         0.1507
     29 H3         -0.8686   -0.6431    0.0061 H         1 <0>         0.1711
     30 H4          0.6920   -1.8992   -1.8212 H         1 <0>         0.1078
     31 H5          2.1761   -2.9075   -1.8424 H         1 <0>         0.1049
     32 H6          6.0264    0.0535    0.4503 H         1 <0>         0.1147
     33 H7          5.9112   -1.7227    0.4420 H         1 <0>         0.1138
     34 H8          6.3375   -2.9551   -1.5268 H         1 <0>         0.1493
     35 H9          7.1270   -2.9970   -3.8578 H         1 <0>         0.1427
     36 H10         6.7211    1.2443   -4.0747 H         1 <0>         0.1464
@<TRIPOS>BOND
     1    1    5 2
     2    1    2 1
     3    1   27 1
     4    2    3 2
     5    2   28 1
     6    3   16 1
     7    3    4 1
     8    4    5 1
     9    4    6 1
    10    5   29 1
    11    6   11 1
    12    6    7 1
    13    6   13 1
    14    7    8 1
    15    7   30 1
    16    7   31 1
    17    8    9 1
    18    8   10 2
    19   10   11 1
    20   11   12 2
    21   13   14 2
    22   13   15 am
    23   15   16 am
    24   15   18 1
    25   16   17 2
    26   18   19 1
    27   18   32 1
    28   18   33 1
    29   19   24 ar
    30   19   20 ar
    31   20   21 ar
    32   20   34 1
    33   21   22 ar
    34   21   35 1
    35   22   23 ar
    36   22   26 1
    37   23   24 ar
    38   23   36 1
    39   24   25 1
@<TRIPOS>MOLECULE
CHEMBL84446
   30    32     0     0     0
SMALL
USER_CHARGES

@<TRIPOS>ATOM
      1 C1         -0.0167    1.3801    0.0096 C.ar      1 <0>        -0.0966
      2 C2          1.1701    2.0848    0.0021 C.ar      1 <0>        -0.1122
      3 C3          2.3855    1.4100   -0.0123 C.ar      1 <0>         0.1542
      4 C4          2.4028    0.0246   -0.0169 C.ar      1 <0>        -0.1575
      5 C5          1.2099   -0.6782   -0.0114 C.ar      1 <0>        -0.0975
      6 C6          0.0021   -0.0041    0.0020 C.ar      1 <0>         0.0727
      7 F1         -1.1583   -0.6960    0.0081 F         1 <0>        -0.1328
      8 C7          3.6992   -0.7359   -0.0229 C.3       1 <0>         0.1749
      9 C8          4.8552    0.1695   -0.4367 C.3       1 <0>        -0.1454
     10 C9          4.7464    1.4825    0.3507 C.3       1 <0>         0.0713
     11 H1          4.7311    1.2686    1.4194 H         1 <0>         0.1194
     12 O1          3.5337    2.1363   -0.0253 O.3       1 <0>        -0.2767
     13 C10         5.9241    2.3657    0.0278 C.2       1 <0>         0.5299
     14 O2          5.7517    3.4213   -0.5440 O.2       1 <0>        -0.5075
     15 N1          7.1688    1.9826    0.3745 N.am      1 <0>        -0.8455
     16 C11         3.9627   -1.3398    1.3369 C.2       1 <0>         0.5367
     17 O3          4.1092   -0.7502    2.3860 O.2       1 <0>        -0.4470
     18 N2          4.0007   -2.6737    1.1374 N.am      1 <0>        -0.6760
     19 C12         3.7990   -2.9857   -0.1487 C.2       1 <0>         0.7048
     20 O4          3.7883   -4.1240   -0.5744 O.2       1 <0>        -0.5256
     21 N3          3.6097   -1.8965   -0.9179 N.am      1 <0>        -0.7097
     22 H2         -0.9588    1.9080    0.0260 H         1 <0>         0.1519
     23 H3          1.1544    3.1647    0.0070 H         1 <0>         0.1533
     24 H4          1.2225   -1.7581   -0.0176 H         1 <0>         0.1373
     25 H5          5.8031   -0.3179   -0.2088 H         1 <0>         0.1059
     26 H6          4.7955    0.3761   -1.5053 H         1 <0>         0.1146
     27 H7          7.3067    1.1383    0.8318 H         1 <0>         0.4036
     28 H8          7.9268    2.5510    0.1667 H         1 <0>         0.4136
     29 H9          4.1552   -3.3257    1.8388 H         1 <0>         0.4388
     30 H10         3.4463   -1.8817   -1.8739 H         1 <0>         0.4472
@<TRIPOS>BOND
     1    1    6 ar
     2    1    2 ar
     3    1   22 1
     4    2    3 ar
     5    2   23 1
     6    3   12 1
     7    3    4 ar
     8    4    5 ar
     9    4    8 1
    10    5    6 ar
    11    5   24 1
    12    6    7 1
    13    8   21 1
    14    8    9 1
    15    8   16 1
    16    9   10 1
    17    9   25 1
    18    9   26 1
    19   10   11 1
    20   10   12 1
    21   10   13 1
    22   13   14 2
    23   13   15 am
    24   15   27 1
    25   15   28 1
    26   16   17 2
    27   16   18 am
    28   18   19 am
    29   18   29 1
    30   19   20 2
    31   19   21 am
    32   21   30 1
@<TRIPOS>MOLECULE
CHEMBL84446__1
   29    31     0     0     0
SMALL
USER_CHARGES

@<TRIPOS>ATOM
      1 C1         -0.0167    1.3801    0.0096 C.ar      1 <0>        -0.1197
      2 C2          1.1701    2.0848    0.0021 C.ar      1 <0>        -0.1206
      3 C3          2.3854    1.4100   -0.0127 C.ar      1 <0>         0.1375
      4 C4          2.4028    0.0245   -0.0173 C.ar      1 <0>        -0.1088
      5 C5          1.2099   -0.6782   -0.0113 C.ar      1 <0>        -0.0974
      6 C6          0.0021   -0.0041    0.0020 C.ar      1 <0>         0.0627
      7 F1         -1.1583   -0.6959    0.0081 F         1 <0>        -0.1424
      8 C7          3.6991   -0.7356   -0.0238 C.3       1 <0>         0.1385
      9 C8          4.8557    0.1693   -0.4361 C.3       1 <0>        -0.1264
     10 C9          4.7463    1.4826    0.3509 C.3       1 <0>         0.0701
     11 H1          4.7304    1.2689    1.4197 H         1 <0>         0.1294
     12 O1          3.5338    2.1362   -0.0260 O.3       1 <0>        -0.2876
     13 C10         5.9241    2.3658    0.0286 C.2       1 <0>         0.5349
     14 O2          5.7519    3.4212   -0.5436 O.2       1 <0>        -0.5264
     15 N1          7.1687    1.9828    0.3761 N.am      1 <0>        -0.8468
     16 C11         3.9618   -1.3454    1.3330 C.2       1 <0>         0.4681
     17 O3          4.1233   -0.6922    2.4952 O.3       1 <0>        -0.6321
     18 N2          3.9996   -2.6382    1.1453 N.2       1 <0>        -0.6653
     19 C12         3.8007   -2.9763   -0.1357 C.2       1 <0>         0.6600
     20 O4          3.7933   -4.1229   -0.5432 O.2       1 <0>        -0.5847
     21 N3          3.6097   -1.8961   -0.9205 N.am      1 <0>        -0.7602
     22 H2         -0.9588    1.9080    0.0260 H         1 <0>         0.1409
     23 H3          1.1545    3.1646    0.0073 H         1 <0>         0.1425
     24 H4          1.2224   -1.7581   -0.0176 H         1 <0>         0.1355
     25 H5          5.8032   -0.3183   -0.2069 H         1 <0>         0.0926
     26 H6          4.7975    0.3758   -1.5048 H         1 <0>         0.0846
     27 H7          7.3064    1.1387    0.8337 H         1 <0>         0.4074
     28 H8          7.9267    2.5513    0.1686 H         1 <0>         0.4061
     29 H9          3.4473   -1.8873   -1.8767 H         1 <0>         0.4079
@<TRIPOS>BOND
     1    1    6 ar
     2    1    2 ar
     3    1   22 1
     4    2    3 ar
     5    2   23 1
     6    3   12 1
     7    3    4 ar
     8    4    5 ar
     9    4    8 1
    10    5    6 ar
    11    5   24 1
    12    6    7 1
    13    8   21 1
    14    8    9 1
    15    8   16 1
    16    9   10 1
    17    9   25 1
    18    9   26 1
    19   10   11 1
    20   10   12 1
    21   10   13 1
    22   13   14 2
    23   13   15 am
    24   15   27 1
    25   15   28 1
    26   16   17 1
    27   16   18 2
    28   18   19 1
    29   19   20 2
    30   19   21 am
    31   21   29 1
@<TRIPOS>MOLECULE
CHEMBL194582
   29    31     0     0     0
SMALL
USER_CHARGES

@<TRIPOS>ATOM
      1 C1         -0.1129    0.4962    0.2408 C.ar      1 <0>        -0.1169
      2 C2          0.9311    1.4108    0.1129 C.ar      1 <0>        -0.0936
      3 C3          2.2260    0.9944    0.0697 C.ar      1 <0>        -0.1231
      4 C4          2.5186   -0.3776    0.1555 C.ar      1 <0>         0.0254
      5 C5          1.4569   -1.3076    0.2861 C.ar      1 <0>        -0.0741
      6 C6          0.1322   -0.8396    0.3267 C.ar      1 <0>        -0.1077
      7 C7          1.7492   -2.6791    0.3724 C.ar      1 <0>        -0.0506
      8 C8          3.0445   -3.0956    0.3296 C.ar      1 <0>        -0.1486
      9 C9          4.0882   -2.1814    0.2017 C.ar      1 <0>        -0.0027
     10 C10         3.8428   -0.8452    0.1149 C.ar      1 <0>        -0.6426
     11 S1          5.1790    0.2918   -0.0475 S.o2      1 <0>         2.6091
     12 O1          6.3721   -0.4800   -0.0412 O.2       1 <0>        -0.9510
     13 O2          4.8419    1.1645   -1.1170 O.2       1 <0>        -0.9310
     14 C11         5.2073    1.2747    1.4147 C.ar      1 <0>        -0.6242
     15 C12         5.8509    0.8086    2.5517 C.ar      1 <0>        -0.0291
     16 C13         5.8477    1.6159    3.6793 C.ar      1 <0>        -0.2356
     17 C14         5.1983    2.8447    3.5995 C.ar      1 <0>         0.3861
     18 N1          4.6108    3.2045    2.4692 N.ar      1 <0>        -0.3405
     19 N2          4.6214    2.4557    1.4268 N.ar      1 <0>        -0.0974
     20 O3          5.1672    3.6701    4.6762 O.3       1 <0>        -0.6679
     21 H1         -1.1315    0.8535    0.2768 H         1 <0>         0.1250
     22 H2          0.7091    2.4656    0.0467 H         1 <0>         0.1319
     23 H3          3.0247    1.7145   -0.0304 H         1 <0>         0.1584
     24 H4         -0.6869   -1.5365    0.4258 H         1 <0>         0.1272
     25 H5          0.9506   -3.3992    0.4725 H         1 <0>         0.1322
     26 H6          3.2666   -4.1504    0.3961 H         1 <0>         0.1325
     27 H7          5.1071   -2.5382    0.1706 H         1 <0>         0.1458
     28 H8          6.3395   -0.1545    2.5587 H         1 <0>         0.1333
     29 H9          6.3336    1.3009    4.5910 H         1 <0>         0.1298
@<TRIPOS>BOND
     1    1    6 ar
     2    1    2 ar
     3    1   21 1
     4    2    3 ar
     5    2   22 1
     6    3    4 ar
     7    3   23 1
     8    4   10 ar
     9    4    5 ar
    10    5    6 ar
    11    5    7 ar
    12    6   24 1
    13    7    8 ar
    14    7   25 1
    15    8    9 ar
    16    8   26 1
    17    9   10 ar
    18    9   27 1
    19   10   11 1
    20   11   12 2
    21   11   13 2
    22   11   14 1
    23   14   15 ar
    24   14   19 ar
    25   15   16 ar
    26   15   28 1
    27   16   17 ar
    28   16   29 1
    29   17   20 1
    30   17   18 ar
    31   18   19 ar
@<TRIPOS>MOLECULE
CHEMBL370444
   28    30     0     0     0
SMALL
USER_CHARGES

@<TRIPOS>ATOM
      1 C1         -0.0171    1.4074    0.0098 C.2       1 <0>        -0.1740
      2 C2         -1.2339    2.0281    0.0190 C.2       1 <0>        -0.0338
      3 C3         -2.3893    1.2293    0.0202 C.2       1 <0>        -0.5015
      4 N1         -2.2941   -0.0712    0.0131 N.2       1 <0>        -0.0785
      5 N2         -1.1633   -0.6791    0.0044 N.am      1 <0>        -0.4281
      6 C4          0.0021   -0.0041    0.0020 C.2       1 <0>         0.4849
      7 O1          1.0637   -0.6064   -0.0118 O.2       1 <0>        -0.5020
      8 S1         -3.9787    1.9900    0.0319 S.o2      1 <0>         2.6288
      9 O2         -3.8333    3.2446   -0.6192 O.2       1 <0>        -0.9058
     10 O3         -4.9034    1.0054   -0.4092 O.2       1 <0>        -0.8853
     11 C5         -4.3772    2.3381    1.7126 C.2       1 <0>        -0.4815
     12 C6         -5.0187    1.4999    2.5421 C.2       1 <0>        -0.0384
     13 C7         -5.1403    2.1832    3.8321 C.ar      1 <0>        -0.1144
     14 C8         -5.6973    1.8365    5.0651 C.ar      1 <0>        -0.0320
     15 C9         -5.6480    2.7221    6.1055 C.ar      1 <0>        -0.0575
     16 C10        -5.0483    3.9650    5.9459 C.ar      1 <0>        -0.0559
     17 C11        -4.4926    4.3269    4.7375 C.ar      1 <0>        -0.0442
     18 C12        -4.5316    3.4398    3.6652 C.ar      1 <0>         0.1428
     19 N3         -4.0735    3.5004    2.3673 N.pl3     1 <0>        -0.5375
     20 H1         -3.6071    4.2553    1.9755 H         1 <0>         0.4311
     21 Cl1        -3.7471    5.8838    4.5531 Cl        1 <0>        -0.0495
     22 Cl2        -6.3406    2.2903    7.6376 Cl        1 <0>        -0.0491
     23 H2          0.9000    1.9777    0.0041 H         1 <0>         0.1773
     24 H3         -1.3057    3.1057    0.0255 H         1 <0>         0.1702
     25 H4         -1.1479   -1.6489   -0.0006 H         1 <0>         0.4505
     26 H5         -5.3774    0.5096    2.3034 H         1 <0>         0.1798
     27 H6         -6.1658    0.8723    5.1961 H         1 <0>         0.1494
     28 H7         -5.0175    4.6545    6.7766 H         1 <0>         0.1542
@<TRIPOS>BOND
     1    1    6 1
     2    1   23 1
     3    1    2 2
     4    2   24 1
     5    2    3 1
     6    3    8 1
     7    3    4 2
     8    4    5 1
     9    5    6 am
    10    5   25 1
    11    6    7 2
    12    8    9 2
    13    8   10 2
    14    8   11 1
    15   11   19 1
    16   11   12 2
    17   12   13 1
    18   12   26 1
    19   13   18 ar
    20   13   14 ar
    21   14   15 ar
    22   14   27 1
    23   15   16 ar
    24   15   22 1
    25   16   17 ar
    26   16   28 1
    27   17   18 ar
    28   17   21 1
    29   18   19 1
    30   19   20 1
@<TRIPOS>MOLECULE
CHEMBL370444__1
   27    29     0     0     0
SMALL
USER_CHARGES

@<TRIPOS>ATOM
      1 C1         -0.0168    1.3880    0.0097 C.ar      1 <0>        -0.2330
      2 C2         -1.2508    2.0207    0.0190 C.ar      1 <0>        -0.0301
      3 C3         -2.3895    1.2284    0.0202 C.ar      1 <0>        -0.6263
      4 N1         -2.2779   -0.0853    0.0125 N.ar      1 <0>        -0.0957
      5 N2         -1.1384   -0.6759    0.0038 N.ar      1 <0>        -0.3397
      6 C4          0.0021   -0.0041    0.0020 C.ar      1 <0>         0.3864
      7 O1          1.1847   -0.6693   -0.0129 O.3       1 <0>        -0.6627
      8 S1         -3.9843    1.9773    0.0325 S.o2      1 <0>         2.6249
      9 O2         -4.8786    1.0196    0.5823 O.2       1 <0>        -0.9262
     10 O3         -3.8198    3.2740    0.5899 O.2       1 <0>        -0.9278
     11 C5         -4.4643    2.2085   -1.6471 C.2       1 <0>        -0.4561
     12 C6         -4.2020    3.3021   -2.3801 C.2       1 <0>        -0.0669
     13 C7         -4.7754    3.0751   -3.7088 C.ar      1 <0>        -0.1102
     14 C8         -4.8297    3.8283   -4.8838 C.ar      1 <0>        -0.0341
     15 C9         -5.4574    3.3207   -5.9872 C.ar      1 <0>        -0.0610
     16 C10        -6.0425    2.0613   -5.9489 C.ar      1 <0>        -0.0669
     17 C11        -6.0003    1.3017   -4.7994 C.ar      1 <0>        -0.0384
     18 C12        -5.3656    1.7996   -3.6647 C.ar      1 <0>         0.1342
     19 N3         -5.1544    1.2976   -2.3992 N.pl3     1 <0>        -0.5281
     20 H1         -5.4524    0.4287   -2.0873 H         1 <0>         0.4334
     21 Cl1        -6.7364   -0.2701   -4.7666 Cl        1 <0>        -0.0544
     22 Cl2        -5.5243    4.2575   -7.4472 Cl        1 <0>        -0.0613
     23 H2          0.9009    1.9574    0.0040 H         1 <0>         0.1321
     24 H3         -1.3232    3.0983    0.0256 H         1 <0>         0.1380
     25 H4         -3.6694    4.1826   -2.0522 H         1 <0>         0.1749
     26 H5         -4.3776    4.8084   -4.9206 H         1 <0>         0.1455
     27 H6         -6.5355    1.6737   -6.8282 H         1 <0>         0.1495
@<TRIPOS>BOND
     1    1    6 ar
     2    1   23 1
     3    1    2 ar
     4    2   24 1
     5    2    3 ar
     6    3    8 1
     7    3    4 ar
     8    4    5 ar
     9    5    6 ar
    10    6    7 1
    11    8    9 2
    12    8   10 2
    13    8   11 1
    14   11   19 1
    15   11   12 2
    16   12   13 1
    17   12   25 1
    18   13   18 ar
    19   13   14 ar
    20   14   15 ar
    21   14   26 1
    22   15   16 ar
    23   15   22 1
    24   16   17 ar
    25   16   27 1
    26   17   18 ar
    27   17   21 1
    28   18   19 1
    29   19   20 1
@<TRIPOS>MOLECULE
CHEMBL442690
   32    33     0     0     0
SMALL
USER_CHARGES

@<TRIPOS>ATOM
      1 C1         -0.0178    1.4608    0.0101 C.3       1 <0>         0.0630
      2 N1          0.0021   -0.0041    0.0020 N.pl3     1 <0>        -0.4921
      3 C2          0.0241   -0.7433    1.2666 C.3       1 <0>         0.0196
      4 C3         -1.3889   -1.0161    1.7137 C.2       1 <0>         0.4975
      5 O1         -2.3274   -0.6289    1.0386 O.co2     1 <0>        -0.6836
      6 O2         -1.5937   -1.6240    2.7506 O.co2     1 <0>        -0.6888
      7 C4          0.0001   -0.6716   -1.1688 C.2       1 <0>         0.2770
      8 S1          0.0218   -2.2704   -1.1776 S.2       1 <0>        -0.5032
      9 C5         -0.0226    0.0888   -2.4697 C.3       1 <0>        -0.0955
     10 C6         -0.0202   -0.8991   -3.6380 C.3       1 <0>        -0.0267
     11 C7         -0.0429   -0.1386   -4.9389 C.2       1 <0>         0.1358
     12 N2          0.9728    0.2729   -5.6401 N.2       1 <0>        -0.5109
     13 C8          0.8202    0.9489   -6.7978 C.ar      1 <0>         0.1175
     14 C9          1.7959    1.4660   -7.6791 C.ar      1 <0>         0.1079
     15 C10         1.4197    2.1328   -8.8207 C.ar      1 <0>         0.1100
     16 C11         0.0803    2.3182   -9.1425 C.ar      1 <0>        -0.1540
     17 C12        -0.8982    1.8230   -8.2987 C.ar      1 <0>         0.1908
     18 C13        -0.5305    1.1544   -7.1539 C.ar      1 <0>        -0.2246
     19 S2         -1.3879    0.3639   -5.8170 S.3       1 <0>         0.1655
     20 F1         -2.2046    1.9943   -8.5971 F         1 <0>        -0.1137
     21 F2          2.3718    2.6183   -9.6471 F         1 <0>        -0.1135
     22 F3          3.1074    1.3046   -7.3976 F         1 <0>        -0.1081
     23 H1          1.0048    1.8381    0.0023 H         1 <0>         0.0642
     24 H2         -0.5450    1.8219   -0.8730 H         1 <0>         0.0747
     25 H3         -0.5280    1.8123    0.9069 H         1 <0>         0.0845
     26 H4          0.5496   -1.6879    1.1262 H         1 <0>         0.1123
     27 H5          0.5371   -0.1514    2.0246 H         1 <0>         0.0802
     28 H6         -0.9215    0.7036   -2.5156 H         1 <0>         0.0981
     29 H7          0.8582    0.7278   -2.5324 H         1 <0>         0.0973
     30 H8          0.8787   -1.5139   -3.5922 H         1 <0>         0.1257
     31 H9         -0.9010   -1.5381   -3.5753 H         1 <0>         0.1205
     32 H10        -0.1947    2.8453  -10.0442 H         1 <0>         0.1726
@<TRIPOS>BOND
     1    1    2 1
     2    1   23 1
     3    1   24 1
     4    1   25 1
     5    2    3 1
     6    2    7 1
     7    3    4 1
     8    3   26 1
     9    3   27 1
    10    4    5 2
    11    4    6 1
    12    7    8 2
    13    7    9 1
    14    9   10 1
    15    9   28 1
    16    9   29 1
    17   10   11 1
    18   10   30 1
    19   10   31 1
    20   11   19 1
    21   11   12 2
    22   12   13 1
    23   13   18 ar
    24   13   14 ar
    25   14   15 ar
    26   14   22 1
    27   15   16 ar
    28   15   21 1
    29   16   17 ar
    30   16   32 1
    31   17   18 ar
    32   17   20 1
    33   18   19 1
@<TRIPOS>MOLECULE
CHEMBL133662
   35    37     0     0     0
SMALL
USER_CHARGES

@<TRIPOS>ATOM
      1 C1         -0.2568    1.1999    0.1648 C.2       1 <0>        -0.2152
      2 C2          1.0293    1.7472    0.1211 C.2       1 <0>        -0.0998
      3 C3          1.9143    0.6922    0.0479 C.2       1 <0>        -0.0384
      4 N1          1.1705   -0.4691    0.0478 N.pl3     1 <0>        -0.3996
      5 C4         -0.1360   -0.1496    0.1186 C.2       1 <0>         0.0461
      6 C5          1.8818   -1.7526   -0.0245 C.3       1 <0>         0.1292
      7 C6          3.3916   -1.7219   -0.0946 C.2       1 <0>         0.5672
      8 O1          4.0211   -2.7563   -0.1559 O.2       1 <0>        -0.4956
      9 N2          4.0319   -0.5382   -0.0889 N.am      1 <0>        -0.5484
     10 C7          3.3730    0.6285   -0.0227 C.2       1 <0>         0.6190
     11 O2          4.0091    1.6655   -0.0217 O.2       1 <0>        -0.5102
     12 C8          5.4952   -0.5232   -0.1574 C.3       1 <0>         0.1408
     13 C9          5.9302   -0.4752   -1.5994 C.ar      1 <0>        -0.0877
     14 C10         6.1347   -1.6502   -2.2989 C.ar      1 <0>        -0.0716
     15 C11         6.5341   -1.6076   -3.6213 C.ar      1 <0>        -0.1019
     16 C12         6.7290   -0.3887   -4.2461 C.ar      1 <0>        -0.0201
     17 C13         6.5238    0.7878   -3.5458 C.ar      1 <0>        -0.0319
     18 C14         6.1190    0.7433   -2.2236 C.ar      1 <0>        -0.0650
     19 Cl1         6.7685    2.3181   -4.3281 Cl        1 <0>        -0.0561
     20 Cl2         7.2312   -0.3345   -5.9070 Cl        1 <0>        -0.0581
     21 C15         1.3725   -2.4994   -1.2589 C.3       1 <0>        -0.2041
     22 C16         1.6449   -1.6766   -2.4917 C.2       1 <0>         0.4920
     23 O3          2.2845   -0.6422   -2.4052 O.co2     1 <0>        -0.6744
     24 O4          1.2257   -2.0452   -3.5756 O.co2     1 <0>        -0.6918
     25 H1         -1.1818    1.7537    0.2288 H         1 <0>         0.1444
     26 H2          1.2815    2.7972    0.1405 H         1 <0>         0.1433
     27 H3         -0.9544   -0.8540    0.1364 H         1 <0>         0.1638
     28 H4          1.6016   -2.3377    0.8515 H         1 <0>         0.1117
     29 H5          5.8745    0.3545    0.3659 H         1 <0>         0.1082
     30 H6          5.8901   -1.4246    0.3114 H         1 <0>         0.1061
     31 H7          5.9826   -2.6019   -1.8115 H         1 <0>         0.1407
     32 H8          6.6943   -2.5257   -4.1669 H         1 <0>         0.1407
     33 H9          5.9548    1.6607   -1.6779 H         1 <0>         0.1472
     34 H10         1.8853   -3.4577   -1.3410 H         1 <0>         0.0894
     35 H11         0.2998   -2.6683   -1.1644 H         1 <0>         0.0800
@<TRIPOS>BOND
     1    1    5 2
     2    1    2 1
     3    1   25 1
     4    2    3 2
     5    2   26 1
     6    3   10 1
     7    3    4 1
     8    4    5 1
     9    4    6 1
    10    5   27 1
    11    6    7 1
    12    6   21 1
    13    6   28 1
    14    7    8 2
    15    7    9 am
    16    9   10 am
    17    9   12 1
    18   10   11 2
    19   12   13 1
    20   12   29 1
    21   12   30 1
    22   13   18 ar
    23   13   14 ar
    24   14   15 ar
    25   14   31 1
    26   15   16 ar
    27   15   32 1
    28   16   17 ar
    29   16   20 1
    30   17   18 ar
    31   17   19 1
    32   18   33 1
    33   21   22 1
    34   21   34 1
    35   21   35 1
    36   22   23 2
    37   22   24 1
@<TRIPOS>MOLECULE
CHEMBL133662__1
   35    37     0     0     0
SMALL
USER_CHARGES

@<TRIPOS>ATOM
      1 C1          0.0501    1.3741    0.0064 C.2       1 <0>        -0.2151
      2 C2          1.3826    1.7982   -0.0036 C.2       1 <0>        -0.0999
      3 C3          2.1667    0.6640   -0.0162 C.2       1 <0>        -0.0372
      4 N1          1.3178   -0.4228   -0.0139 N.pl3     1 <0>        -0.3988
      5 C4          0.0454    0.0185   -0.0002 C.2       1 <0>         0.0448
      6 C5          1.9078   -1.7683   -0.0262 C.3       1 <0>         0.1291
      7 C6          3.4153   -1.8799   -0.0408 C.2       1 <0>         0.5658
      8 O1          3.9468   -2.9696   -0.0517 O.2       1 <0>        -0.4933
      9 N2          4.1631   -0.7611   -0.0421 N.am      1 <0>        -0.5473
     10 C7          3.6146    0.4632   -0.0307 C.2       1 <0>         0.6188
     11 O2          4.3447    1.4363   -0.0330 O.2       1 <0>        -0.5098
     12 C8          5.6229   -0.8839   -0.0563 C.3       1 <0>         0.1381
     13 C9          6.1102   -0.9188   -1.4819 C.ar      1 <0>        -0.0900
     14 C10         6.2278   -2.1278   -2.1425 C.ar      1 <0>        -0.0803
     15 C11         6.6750   -2.1612   -3.4497 C.ar      1 <0>        -0.1045
     16 C12         7.0049   -0.9846   -4.0983 C.ar      1 <0>        -0.0268
     17 C13         6.8868    0.2260   -3.4370 C.ar      1 <0>        -0.0355
     18 C14         6.4340    0.2581   -2.1301 C.ar      1 <0>        -0.0726
     19 Cl1         7.3009    1.7033   -4.2491 Cl        1 <0>        -0.0503
     20 Cl2         7.5673   -1.0260   -5.7401 Cl        1 <0>        -0.0543
     21 C15         1.3967   -2.5131    1.2087 C.3       1 <0>        -0.2028
     22 C16         1.9056   -1.8315    2.4527 C.2       1 <0>         0.4907
     23 O3          2.5246   -0.7848    2.3645 O.co2     1 <0>        -0.6792
     24 O4          1.6982   -2.3268    3.5474 O.co2     1 <0>        -0.6907
     25 H1         -0.8206    2.0129    0.0214 H         1 <0>         0.1447
     26 H2          1.7314    2.8204   -0.0021 H         1 <0>         0.1436
     27 H3         -0.8356   -0.6062    0.0054 H         1 <0>         0.1641
     28 H4          1.5273   -2.2900   -0.9044 H         1 <0>         0.1119
     29 H5          6.0644   -0.0302    0.4578 H         1 <0>         0.1113
     30 H6          5.9151   -1.8039    0.4502 H         1 <0>         0.1094
     31 H7          5.9703   -3.0465   -1.6365 H         1 <0>         0.1470
     32 H8          6.7673   -3.1059   -3.9649 H         1 <0>         0.1436
     33 H9          6.3377    1.2024   -1.6149 H         1 <0>         0.1528
     34 H10         0.3068   -2.5074    1.2113 H         1 <0>         0.0821
     35 H11         1.7546   -3.5425    1.1862 H         1 <0>         0.0907
@<TRIPOS>BOND
     1    1    5 2
     2    1    2 1
     3    1   25 1
     4    2    3 2
     5    2   26 1
     6    3   10 1
     7    3    4 1
     8    4    5 1
     9    4    6 1
    10    5   27 1
    11    6    7 1
    12    6   21 1
    13    6   28 1
    14    7    8 2
    15    7    9 am
    16    9   10 am
    17    9   12 1
    18   10   11 2
    19   12   13 1
    20   12   29 1
    21   12   30 1
    22   13   18 ar
    23   13   14 ar
    24   14   15 ar
    25   14   31 1
    26   15   16 ar
    27   15   32 1
    28   16   17 ar
    29   16   20 1
    30   17   18 ar
    31   17   19 1
    32   18   33 1
    33   21   22 1
    34   21   34 1
    35   21   35 1
    36   22   23 2
    37   22   24 1
@<TRIPOS>MOLECULE
CHEMBL277520
   27    28     0     0     0
SMALL
USER_CHARGES

@<TRIPOS>ATOM
      1 C1          0.5668    2.4105   -0.4356 C.3       1 <0>        -0.6611
      2 S1          0.4040    0.6357   -0.0976 S.o2      1 <0>         2.4820
      3 O1          1.3728    0.2289    0.8591 O.2       1 <0>        -0.9264
      4 O2         -0.9650    0.2923    0.0668 O.2       1 <0>        -0.9032
      5 C2          0.8898   -0.1568   -1.5944 C.ar      1 <0>        -0.6377
      6 C3          2.0542   -0.9013   -1.6358 C.ar      1 <0>        -0.0023
      7 C4          2.4359   -1.5227   -2.8096 C.ar      1 <0>        -0.1161
      8 C5          1.6524   -1.4001   -3.9436 C.ar      1 <0>         0.0170
      9 C6          0.4874   -0.6554   -3.9014 C.ar      1 <0>        -0.1100
     10 C7          0.1039   -0.0386   -2.7252 C.ar      1 <0>        -0.0019
     11 C8         -1.1682    0.7680   -2.6776 C.3       1 <0>         0.1119
     12 C9         -2.3639   -0.1349   -2.4478 C.2       1 <0>         0.5298
     13 O3         -2.5718   -0.8442   -1.4869 O.2       1 <0>        -0.4036
     14 N1         -3.1481    0.0156   -3.5334 N.am      1 <0>        -0.6801
     15 C10        -2.6196    0.8791   -4.4081 C.2       1 <0>         0.7065
     16 O4         -3.1438    1.1780   -5.4631 O.2       1 <0>        -0.5304
     17 N2         -1.4434    1.3798   -3.9892 N.am      1 <0>        -0.7198
     18 Cl1         2.1317   -2.1799   -5.4186 Cl        1 <0>        -0.0417
     19 H1          1.5188    2.6001   -0.9313 H         1 <0>         0.1378
     20 H2         -0.2497    2.7338   -1.0813 H         1 <0>         0.1301
     21 H3          0.5290    2.9640    0.5026 H         1 <0>         0.1429
     22 H4          2.6656   -0.9969   -0.7507 H         1 <0>         0.1638
     23 H5          3.3458   -2.1036   -2.8420 H         1 <0>         0.1517
     24 H6         -0.1245   -0.5593   -4.7862 H         1 <0>         0.1455
     25 H7         -1.1074    1.5325   -1.9030 H         1 <0>         0.1303
     26 H8         -3.9913   -0.4456   -3.6646 H         1 <0>         0.4391
     27 H9         -0.8854    2.0192   -4.4589 H         1 <0>         0.4458
@<TRIPOS>BOND
     1    1    2 1
     2    1   19 1
     3    1   20 1
     4    1   21 1
     5    2    3 2
     6    2    4 2
     7    2    5 1
     8    5   10 ar
     9    5    6 ar
    10    6    7 ar
    11    6   22 1
    12    7    8 ar
    13    7   23 1
    14    8    9 ar
    15    8   18 1
    16    9   10 ar
    17    9   24 1
    18   10   11 1
    19   11   17 1
    20   11   12 1
    21   11   25 1
    22   12   13 2
    23   12   14 am
    24   14   15 am
    25   14   26 1
    26   15   16 2
    27   15   17 am
    28   17   27 1
@<TRIPOS>MOLECULE
CHEMBL277520__1
   27    28     0     0     0
SMALL
USER_CHARGES

@<TRIPOS>ATOM
      1 C1         -1.5683   -0.9794   -0.0833 C.3       1 <0>        -0.6620
      2 S1         -0.0196   -0.0386    0.0009 S.o2      1 <0>         2.4815
      3 O1         -0.2727    1.3417   -0.2223 O.2       1 <0>        -0.9025
      4 O2          0.7505   -0.4627    1.1173 O.2       1 <0>        -0.9264
      5 C2          0.9038   -0.5597   -1.4064 C.ar      1 <0>        -0.6367
      6 C3          2.0604   -1.2985   -1.2391 C.ar      1 <0>        -0.0023
      7 C4          2.7853   -1.7071   -2.3424 C.ar      1 <0>        -0.1157
      8 C5          2.3532   -1.3770   -3.6148 C.ar      1 <0>         0.0167
      9 C6          1.1956   -0.6382   -3.7816 C.ar      1 <0>        -0.1095
     10 C7          0.4685   -0.2345   -2.6773 C.ar      1 <0>        -0.0034
     11 C8         -0.7956    0.5655   -2.8590 C.3       1 <0>         0.1111
     12 C9         -0.4752    2.0370   -3.0314 C.2       1 <0>         0.5296
     13 O3          0.0788    2.7641   -2.2350 O.2       1 <0>        -0.4025
     14 N1         -0.9337    2.3688   -4.2545 N.am      1 <0>        -0.6801
     15 C10        -1.4934    1.3224   -4.8724 C.2       1 <0>         0.7067
     16 O4         -1.9784    1.3752   -5.9855 O.2       1 <0>        -0.5302
     17 N2         -1.4596    0.2052   -4.1236 N.am      1 <0>        -0.7200
     18 Cl1         3.2636   -1.8895   -5.0012 Cl        1 <0>        -0.0417
     19 H1         -1.9537   -0.9544   -1.1026 H         1 <0>         0.1278
     20 H2         -1.3822   -2.0127    0.2095 H         1 <0>         0.1404
     21 H3         -2.2998   -0.5363    0.5926 H         1 <0>         0.1423
     22 H4          2.3976   -1.5561   -0.2459 H         1 <0>         0.1638
     23 H5          3.6892   -2.2836   -2.2115 H         1 <0>         0.1518
     24 H6          0.8579   -0.3803   -4.7744 H         1 <0>         0.1455
     25 H7         -1.4689    0.4135   -2.0154 H         1 <0>         0.1310
     26 H8         -0.8667    3.2568   -4.6392 H         1 <0>         0.4391
     27 H9         -1.8050   -0.6674   -4.3688 H         1 <0>         0.4458
@<TRIPOS>BOND
     1    1    2 1
     2    1   19 1
     3    1   20 1
     4    1   21 1
     5    2    3 2
     6    2    4 2
     7    2    5 1
     8    5   10 ar
     9    5    6 ar
    10    6    7 ar
    11    6   22 1
    12    7    8 ar
    13    7   23 1
    14    8    9 ar
    15    8   18 1
    16    9   10 ar
    17    9   24 1
    18   10   11 1
    19   11   17 1
    20   11   12 1
    21   11   25 1
    22   12   13 2
    23   12   14 am
    24   14   15 am
    25   14   26 1
    26   15   16 2
    27   15   17 am
    28   17   27 1
@<TRIPOS>MOLECULE
CHEMBL143872
   37    40     0     0     0
SMALL
USER_CHARGES

@<TRIPOS>ATOM
      1 C1         -0.0165    1.3627    0.0095 C.ar      1 <0>        -0.0929
      2 C2          1.1654    2.0924    0.0022 C.ar      1 <0>        -0.1277
      3 C3          2.3861    1.4540   -0.0134 C.ar      1 <0>        -0.0562
      4 C4          2.4294    0.0605   -0.0213 C.ar      1 <0>        -0.1329
      5 C5          1.2244   -0.6786   -0.0133 C.ar      1 <0>        -0.0438
      6 C6          0.0021   -0.0041    0.0020 C.ar      1 <0>        -0.1009
      7 C7          1.3000   -2.1396   -0.0224 C.2       1 <0>         0.1238
      8 N1          2.4575   -2.7306   -0.0371 N.2       1 <0>        -0.1294
      9 N2          3.6626   -2.0276   -0.0452 N.am      1 <0>        -0.4403
     10 C8          3.6977   -0.6787   -0.0384 C.2       1 <0>         0.5192
     11 O1          4.7616   -0.0856   -0.0461 O.2       1 <0>        -0.5354
     12 C9          4.9232   -2.7737   -0.0618 C.3       1 <0>         0.2182
     13 C10         5.3696   -3.0372    1.3533 C.2       1 <0>        -0.1380
     14 C11         5.0834   -4.0910    2.1305 C.2       1 <0>        -0.1068
     15 C12         5.6241   -4.1469    3.4797 C.ar      1 <0>        -0.1366
     16 C13         5.4568   -5.1496    4.4651 C.ar      1 <0>        -0.0267
     17 C14         6.0688   -4.9917    5.6867 C.ar      1 <0>        -0.1834
     18 C15         6.8372   -3.8671    5.9466 C.ar      1 <0>         0.1251
     19 N3          6.9904   -2.9354    5.0256 N.ar      1 <0>        -0.4516
     20 C16         6.4256   -3.0417    3.8441 C.ar      1 <0>         0.0813
     21 S1          6.4099   -2.0253    2.3880 S.3       1 <0>         0.0912
     22 C17         0.0356   -2.9595   -0.0143 C.3       1 <0>        -0.1327
     23 C18         0.3870   -4.4249   -0.0262 C.2       1 <0>         0.4906
     24 O2          1.5559   -4.7714   -0.0401 O.co2     1 <0>        -0.6544
     25 O3         -0.4975   -5.2640   -0.0221 O.co2     1 <0>        -0.7043
     26 H1         -0.9631    1.8823    0.0259 H         1 <0>         0.1297
     27 H2          1.1269    3.1717    0.0083 H         1 <0>         0.1297
     28 H3          3.3010    2.0277   -0.0197 H         1 <0>         0.1379
     29 H4         -0.9242   -0.5594    0.0075 H         1 <0>         0.1398
     30 H5          4.7775   -3.7219   -0.5793 H         1 <0>         0.1246
     31 H6          5.6841   -2.1901   -0.5800 H         1 <0>         0.1089
     32 H7          4.4580   -4.8894    1.7594 H         1 <0>         0.1547
     33 H8          4.8577   -6.0247    4.2609 H         1 <0>         0.1408
     34 H9          5.9499   -5.7482    6.4483 H         1 <0>         0.1402
     35 H10         7.3130   -3.7531    6.9094 H         1 <0>         0.1660
     36 H11        -0.5398   -2.7311    0.8829 H         1 <0>         0.0856
     37 H12        -0.5578   -2.7210   -0.8970 H         1 <0>         0.0866
@<TRIPOS>BOND
     1    1    6 ar
     2    1    2 ar
     3    1   26 1
     4    2    3 ar
     5    2   27 1
     6    3    4 ar
     7    3   28 1
     8    4   10 1
     9    4    5 ar
    10    5    6 ar
    11    5    7 1
    12    6   29 1
    13    7    8 2
    14    7   22 1
    15    8    9 1
    16    9   10 am
    17    9   12 1
    18   10   11 2
    19   12   13 1
    20   12   30 1
    21   12   31 1
    22   13   21 1
    23   13   14 2
    24   14   15 1
    25   14   32 1
    26   15   20 ar
    27   15   16 ar
    28   16   17 ar
    29   16   33 1
    30   17   18 ar
    31   17   34 1
    32   18   19 ar
    33   18   35 1
    34   19   20 ar
    35   20   21 1
    36   22   23 1
    37   22   36 1
    38   22   37 1
    39   23   24 2
    40   23   25 1
@<TRIPOS>MOLECULE
CHEMBL159384
   31    33     0     0     0
SMALL
USER_CHARGES

@<TRIPOS>ATOM
      1 C1         -0.0167    1.3835    0.0096 C.ar      1 <0>        -0.0893
      2 C2          1.1764    2.0815    0.0020 C.ar      1 <0>        -0.0561
      3 C3          2.3637    1.3909   -0.0130 C.ar      1 <0>        -0.1673
      4 C4          2.4181   -0.0212   -0.0211 C.ar      1 <0>         0.0879
      5 C5          1.1829   -0.7038   -0.0130 C.ar      1 <0>         0.0207
      6 C6          0.0021   -0.0041    0.0020 C.ar      1 <0>        -0.1052
      7 Cl1         1.1567   -2.4396   -0.0221 Cl        1 <0>        -0.0493
      8 N1          3.6759   -0.5089   -0.0358 N.2       1 <0>        -0.4840
      9 C7          4.7200    0.2671   -0.0416 C.2       1 <0>         0.0738
     10 S1          4.0836    1.8251   -0.0271 S.3       1 <0>         0.1579
     11 C8          6.1716   -0.1376   -0.0572 C.3       1 <0>         0.2113
     12 N2          6.6290   -0.2617   -1.4434 N.am      1 <0>        -0.5771
     13 C9          6.5607   -1.3983   -2.1643 C.2       1 <0>         0.5271
     14 O1          6.1256   -2.4703   -1.8018 O.2       1 <0>        -0.4688
     15 C10         7.1401   -1.0574   -3.5229 C.3       1 <0>         0.0661
     16 N3          7.5016    0.3652   -3.3980 N.am      1 <0>        -0.5846
     17 C11         7.1610    0.7408   -2.1519 C.2       1 <0>         0.6981
     18 O2          7.3217    1.8644   -1.7173 O.2       1 <0>        -0.5453
     19 C12         8.1094    1.2078   -4.4308 C.3       1 <0>         0.0784
     20 C13         7.0251    1.8656   -5.2448 C.2       1 <0>         0.4798
     21 O3          5.8532    1.6505   -4.9861 O.co2     1 <0>        -0.6821
     22 O4          7.3197    2.6129   -6.1620 O.co2     1 <0>        -0.6944
     23 H1         -0.9571    1.9144    0.0260 H         1 <0>         0.1472
     24 H2          1.1751    3.1614    0.0075 H         1 <0>         0.1412
     25 H3         -0.9326   -0.5451    0.0080 H         1 <0>         0.1435
     26 H4          6.7654    0.6195    0.4550 H         1 <0>         0.1261
     27 H5          6.2873   -1.0951    0.4507 H         1 <0>         0.1279
     28 H6          8.0246   -1.6615   -3.7251 H         1 <0>         0.1186
     29 H7          6.3929   -1.1960   -4.3042 H         1 <0>         0.1240
     30 H8          8.7249    1.9738   -3.9591 H         1 <0>         0.0892
     31 H9          8.7304    0.5930   -5.0823 H         1 <0>         0.0850
@<TRIPOS>BOND
     1    1    6 ar
     2    1    2 ar
     3    1   23 1
     4    2    3 ar
     5    2   24 1
     6    3   10 1
     7    3    4 ar
     8    4    5 ar
     9    4    8 1
    10    5    6 ar
    11    5    7 1
    12    6   25 1
    13    8    9 2
    14    9   10 1
    15    9   11 1
    16   11   12 1
    17   11   26 1
    18   11   27 1
    19   12   17 am
    20   12   13 am
    21   13   14 2
    22   13   15 1
    23   15   16 1
    24   15   28 1
    25   15   29 1
    26   16   17 am
    27   16   19 1
    28   17   18 2
    29   19   20 1
    30   19   30 1
    31   19   31 1
    32   20   21 2
    33   20   22 1
@<TRIPOS>MOLECULE
CHEMBL50
   32    34     0     0     0
SMALL
USER_CHARGES

@<TRIPOS>ATOM
      1 C1          0.9741   -0.2755   -0.9644 C.ar      1 <0>        -0.0748
      2 C2          2.1569    0.4329   -0.9701 C.ar      1 <0>        -0.1346
      3 C3          2.3856    1.4156   -0.0177 C.ar      1 <0>         0.1032
      4 C4          1.4203    1.6918    0.9495 C.ar      1 <0>         0.0788
      5 C5          0.2328    0.9863    0.9617 C.ar      1 <0>        -0.0762
      6 C6          0.0021   -0.0041    0.0020 C.ar      1 <0>        -0.0447
      7 C7         -1.2637   -0.7605    0.0100 C.2       1 <0>         0.1350
      8 C8         -2.4363   -0.0759    0.1235 C.2       1 <0>        -0.0429
      9 C9         -3.6628   -0.7894    0.1327 C.2       1 <0>         0.4011
     10 O1         -4.7327   -0.2102    0.2323 O.2       1 <0>        -0.4484
     11 C10        -3.5946   -2.2549    0.0170 C.ar      1 <0>        -0.2690
     12 C11        -4.7561   -3.0387    0.0170 C.ar      1 <0>         0.2244
     13 C12        -4.6504   -4.4123   -0.0941 C.ar      1 <0>        -0.2081
     14 C13        -3.3994   -5.0103   -0.2044 C.ar      1 <0>         0.2000
     15 C14        -2.2463   -4.2416   -0.2047 C.ar      1 <0>        -0.1854
     16 C15        -2.3316   -2.8618   -0.0952 C.ar      1 <0>         0.1876
     17 O2         -1.2182   -2.0992   -0.1003 O.3       1 <0>        -0.1970
     18 O3         -3.3070   -6.3605   -0.3125 O.3       1 <0>        -0.4866
     19 O4         -5.9758   -2.4535    0.1257 O.3       1 <0>        -0.4726
     20 O5         -2.4312    1.2810    0.2275 O.3       1 <0>        -0.4502
     21 O6          1.6480    2.6557    1.8815 O.3       1 <0>        -0.4836
     22 O7          3.5534    2.1101   -0.0273 O.3       1 <0>        -0.4861
     23 H1          0.7971   -1.0371   -1.7094 H         1 <0>         0.1379
     24 H2          2.9075    0.2221   -1.7176 H         1 <0>         0.1421
     25 H3         -0.5155    1.1988    1.7108 H         1 <0>         0.1429
     26 H4         -5.5413   -5.0229   -0.0948 H         1 <0>         0.1515
     27 H5         -1.2805   -4.7174   -0.2903 H         1 <0>         0.1559
     28 H6         -3.3257   -6.6843   -1.2235 H         1 <0>         0.4050
     29 H7         -6.3751   -2.2160   -0.7224 H         1 <0>         0.4036
     30 H8         -3.3120    1.6729    0.3033 H         1 <0>         0.4079
     31 H9          1.3508    3.5370    1.6166 H         1 <0>         0.3905
     32 H10         3.5287    2.9137   -0.5647 H         1 <0>         0.3924
@<TRIPOS>BOND
     1    1    6 ar
     2    1    2 ar
     3    1   23 1
     4    2    3 ar
     5    2   24 1
     6    3    4 ar
     7    3   22 1
     8    4    5 ar
     9    4   21 1
    10    5    6 ar
    11    5   25 1
    12    6    7 1
    13    7   17 1
    14    7    8 2
    15    8    9 1
    16    8   20 1
    17    9   10 2
    18    9   11 1
    19   11   16 ar
    20   11   12 ar
    21   12   13 ar
    22   12   19 1
    23   13   14 ar
    24   13   26 1
    25   14   15 ar
    26   14   18 1
    27   15   16 ar
    28   15   27 1
    29   16   17 1
    30   18   28 1
    31   19   29 1
    32   20   30 1
    33   21   31 1
    34   22   32 1
@<TRIPOS>MOLECULE
CHEMBL30993
   39    41     0     0     0
SMALL
USER_CHARGES

@<TRIPOS>ATOM
      1 C1         -0.0184    1.5028    0.0103 C.3       1 <0>        -0.1147
      2 C2          0.0021   -0.0041    0.0020 C.ar      1 <0>        -0.0823
      3 C3          0.0057   -0.6887   -1.1989 C.ar      1 <0>        -0.1264
      4 C4          0.0245   -2.0709   -1.2065 C.ar      1 <0>        -0.0982
      5 C5          0.0400   -2.7685   -0.0132 C.ar      1 <0>        -0.1188
      6 C6          0.0373   -2.0839    1.1877 C.ar      1 <0>        -0.0874
      7 C7          0.0229   -0.7016    1.1953 C.ar      1 <0>        -0.1208
      8 C8          0.0595   -4.2753   -0.0215 C.3       1 <0>         0.1531
      9 N1          1.4468   -4.7457   -0.0317 N.am      1 <0>        -0.5549
     10 C9          2.1795   -4.9842   -1.1964 C.ar      1 <0>         0.1556
     11 C10         1.8251   -4.8537   -2.5378 C.ar      1 <0>        -0.1200
     12 C11         2.7369   -5.1547   -3.5280 C.ar      1 <0>        -0.1170
     13 C12         4.0101   -5.5889   -3.1984 C.ar      1 <0>         0.0684
     14 C13         4.3688   -5.7208   -1.8663 C.ar      1 <0>        -0.0956
     15 C14         3.4591   -5.4200   -0.8776 C.ar      1 <0>        -0.1143
     16 C15         3.5322   -5.4572    0.6316 C.3       1 <0>        -0.0481
     17 C16         2.1627   -4.9919    1.0784 C.2       1 <0>         0.5366
     18 O1          1.7822   -4.8672    2.2233 O.2       1 <0>        -0.4291
     19 C17         4.6114   -4.4990    1.1397 C.3       1 <0>        -0.0528
     20 C18         5.9176   -4.8940    0.5879 C.1       1 <0>         0.2508
     21 N2          6.9257   -5.1989    0.1621 N.1       1 <0>        -0.4603
     22 C19         4.6643   -4.5545    2.6447 C.2       1 <0>         0.5049
     23 O2          3.9089   -5.2921    3.2545 O.co2     1 <0>        -0.6427
     24 O3          5.4625   -3.8618    3.2526 O.co2     1 <0>        -0.6812
     25 F1          4.8991   -5.8832   -4.1721 F         1 <0>        -0.1401
     26 H1          1.0042    1.8801    0.0026 H         1 <0>         0.0707
     27 H2         -0.5455    1.8639   -0.8728 H         1 <0>         0.0642
     28 H3         -0.5286    1.8543    0.9071 H         1 <0>         0.0656
     29 H4         -0.0064   -0.1436   -2.1312 H         1 <0>         0.1201
     30 H5          0.0266   -2.6057   -2.1448 H         1 <0>         0.1198
     31 H6          0.0491   -2.6289    2.1200 H         1 <0>         0.1296
     32 H7          0.0245   -0.1667    2.1335 H         1 <0>         0.1229
     33 H8         -0.4447   -4.6501    0.8693 H         1 <0>         0.0995
     34 H9         -0.4546   -4.6404   -0.9106 H         1 <0>         0.0908
     35 H10         0.8339   -4.5163   -2.8026 H         1 <0>         0.1324
     36 H11         2.4564   -5.0515   -4.5659 H         1 <0>         0.1395
     37 H12         5.3603   -6.0594   -1.6042 H         1 <0>         0.1373
     38 H13         3.7265   -6.4717    0.9796 H         1 <0>         0.1337
     39 H14         4.3747   -3.4836    0.8216 H         1 <0>         0.1090
@<TRIPOS>BOND
     1    1    2 1
     2    1   26 1
     3    1   27 1
     4    1   28 1
     5    2    7 ar
     6    2    3 ar
     7    3    4 ar
     8    3   29 1
     9    4    5 ar
    10    4   30 1
    11    5    6 ar
    12    5    8 1
    13    6    7 ar
    14    6   31 1
    15    7   32 1
    16    8    9 1
    17    8   33 1
    18    8   34 1
    19    9   17 am
    20    9   10 1
    21   10   15 ar
    22   10   11 ar
    23   11   12 ar
    24   11   35 1
    25   12   13 ar
    26   12   36 1
    27   13   14 ar
    28   13   25 1
    29   14   15 ar
    30   14   37 1
    31   15   16 1
    32   16   17 1
    33   16   19 1
    34   16   38 1
    35   17   18 2
    36   19   20 1
    37   19   22 1
    38   19   39 1
    39   20   21 3
    40   22   23 2
    41   22   24 1
@<TRIPOS>MOLECULE
CHEMBL30993__1
   39    41     0     0     0
SMALL
USER_CHARGES

@<TRIPOS>ATOM
      1 C1          3.8767    3.0052   -0.2312 C.3       1 <0>        -0.1136
      2 C2          3.0895    1.7211   -0.1789 C.ar      1 <0>        -0.0783
      3 C3          2.7018    1.0999   -1.3514 C.ar      1 <0>        -0.1241
      4 C4          1.9798   -0.0779   -1.3035 C.ar      1 <0>        -0.0966
      5 C5          1.6459   -0.6348   -0.0831 C.ar      1 <0>        -0.1198
      6 C6          2.0344   -0.0141    1.0894 C.ar      1 <0>        -0.0852
      7 C7          2.7602    1.1615    1.0414 C.ar      1 <0>        -0.1172
      8 C8          0.8579   -1.9183   -0.0308 C.3       1 <0>         0.1524
      9 N1          1.7795   -3.0571   -0.0218 N.am      1 <0>        -0.5504
     10 C9          2.2469   -3.6896   -1.1757 C.ar      1 <0>         0.1538
     11 C10         1.9885   -3.4358   -2.5213 C.ar      1 <0>        -0.1182
     12 C11         2.5777   -4.2108   -3.4985 C.ar      1 <0>        -0.1176
     13 C12         3.4293   -5.2464   -3.1513 C.ar      1 <0>         0.0677
     14 C13         3.6904   -5.5041   -1.8149 C.ar      1 <0>        -0.0924
     15 C14         3.1029   -4.7303   -0.8393 C.ar      1 <0>        -0.1119
     16 C15         3.1769   -4.7493    0.6702 C.3       1 <0>        -0.0518
     17 C16         2.2768   -3.6095    1.0976 C.2       1 <0>         0.5318
     18 O1          2.0461   -3.2619    2.2365 O.2       1 <0>        -0.4556
     19 C17         4.6114   -4.4990    1.1397 C.3       1 <0>        -0.0543
     20 C18         5.0529   -3.1715    0.6818 C.1       1 <0>         0.2375
     21 N2          5.3936   -2.1470    0.3284 N.1       1 <0>        -0.4491
     22 C19         4.6643   -4.5545    2.6447 C.2       1 <0>         0.5149
     23 O2          3.9741   -5.3570    3.2498 O.co2     1 <0>        -0.6657
     24 O3          5.3973   -3.7969    3.2573 O.co2     1 <0>        -0.6750
     25 F1          4.0031   -6.0031   -4.1122 F         1 <0>        -0.1402
     26 H1          4.9423    2.7774   -0.2538 H         1 <0>         0.0708
     27 H2          3.6049    3.5616   -1.1282 H         1 <0>         0.0638
     28 H3          3.6520    3.6052    0.6506 H         1 <0>         0.0649
     29 H4          2.9626    1.5350   -2.3048 H         1 <0>         0.1191
     30 H5          1.6762   -0.5629   -2.2195 H         1 <0>         0.1175
     31 H6          1.7733   -0.4490    2.0428 H         1 <0>         0.1254
     32 H7          3.0669    1.6445    1.9574 H         1 <0>         0.1210
     33 H8          0.2506   -1.9352    0.8741 H         1 <0>         0.0987
     34 H9          0.2096   -1.9825   -0.9047 H         1 <0>         0.0917
     35 H10         1.3250   -2.6304   -2.7998 H         1 <0>         0.1313
     36 H11         2.3736   -4.0093   -4.5397 H         1 <0>         0.1392
     37 H12         4.3535   -6.3107   -1.5391 H         1 <0>         0.1440
     38 H13         2.8070   -5.6981    1.0587 H         1 <0>         0.1508
     39 H14         5.2682   -5.2635    0.7246 H         1 <0>         0.1209
@<TRIPOS>BOND
     1    1    2 1
     2    1   26 1
     3    1   27 1
     4    1   28 1
     5    2    7 ar
     6    2    3 ar
     7    3    4 ar
     8    3   29 1
     9    4    5 ar
    10    4   30 1
    11    5    6 ar
    12    5    8 1
    13    6    7 ar
    14    6   31 1
    15    7   32 1
    16    8    9 1
    17    8   33 1
    18    8   34 1
    19    9   17 am
    20    9   10 1
    21   10   15 ar
    22   10   11 ar
    23   11   12 ar
    24   11   35 1
    25   12   13 ar
    26   12   36 1
    27   13   14 ar
    28   13   25 1
    29   14   15 ar
    30   14   37 1
    31   15   16 1
    32   16   17 1
    33   16   19 1
    34   16   38 1
    35   17   18 2
    36   19   20 1
    37   19   22 1
    38   19   39 1
    39   20   21 3
    40   22   23 2
    41   22   24 1
@<TRIPOS>MOLECULE
CHEMBL30993__2
   39    41     0     0     0
SMALL
USER_CHARGES

@<TRIPOS>ATOM
      1 C1         -4.6659   -3.1199    0.6327 C.3       1 <0>        -0.1143
      2 C2         -3.6482   -4.2228    0.4952 C.ar      1 <0>        -0.0829
      3 C3         -3.2345   -4.6289   -0.7597 C.ar      1 <0>        -0.1254
      4 C4         -2.3009   -5.6405   -0.8859 C.ar      1 <0>        -0.0972
      5 C5         -1.7808   -6.2458    0.2428 C.ar      1 <0>        -0.1156
      6 C6         -2.1939   -5.8391    1.4977 C.ar      1 <0>        -0.0890
      7 C7         -3.1242   -4.8245    1.6240 C.ar      1 <0>        -0.1213
      8 C8         -0.7638   -7.3494    0.1052 C.3       1 <0>         0.1507
      9 N1          0.5831   -6.7734    0.0925 N.am      1 <0>        -0.5496
     10 C9          1.2448   -6.3662   -1.0679 C.ar      1 <0>         0.1526
     11 C10         0.8440   -6.3948   -2.4022 C.ar      1 <0>        -0.1180
     12 C11         1.6873   -5.9291   -3.3894 C.ar      1 <0>        -0.1176
     13 C12         2.9376   -5.4303   -3.0637 C.ar      1 <0>         0.0685
     14 C13         3.3422   -5.3991   -1.7386 C.ar      1 <0>        -0.0923
     15 C14         2.5006   -5.8634   -0.7529 C.ar      1 <0>        -0.1111
     16 C15         2.6358   -5.9667    0.7489 C.3       1 <0>        -0.0523
     17 C16         1.3218   -6.5707    1.1965 C.2       1 <0>         0.5323
     18 O1          0.9976   -6.8260    2.3370 O.2       1 <0>        -0.4583
     19 C17         3.8049   -6.8812    1.1201 C.3       1 <0>        -0.0538
     20 C18         3.5166   -8.2530    0.6709 C.1       1 <0>         0.2428
     21 N2          3.2941   -9.3117    0.3242 N.1       1 <0>        -0.4570
     22 C19         3.9950   -6.8717    2.6150 C.2       1 <0>         0.5148
     23 O2          3.8297   -5.8404    3.2440 O.co2     1 <0>        -0.6661
     24 O3          4.3142   -7.8953    3.1955 O.co2     1 <0>        -0.6741
     25 F1          3.7601   -4.9762   -4.0345 F         1 <0>        -0.1398
     26 H1         -4.1550   -2.1585    0.6855 H         1 <0>         0.0703
     27 H2         -5.3320   -3.1304   -0.2300 H         1 <0>         0.0648
     28 H3         -5.2470   -3.2730    1.5422 H         1 <0>         0.0656
     29 H4         -3.6408   -4.1560   -1.6416 H         1 <0>         0.1210
     30 H5         -1.9782   -5.9583   -1.8664 H         1 <0>         0.1204
     31 H6         -1.7878   -6.3122    2.3796 H         1 <0>         0.1287
     32 H7         -3.4442   -4.5042    2.6045 H         1 <0>         0.1228
     33 H8         -0.8572   -8.0364    0.9463 H         1 <0>         0.0985
     34 H9         -0.9370   -7.8891   -0.8258 H         1 <0>         0.0916
     35 H10        -0.1293   -6.7829   -2.6641 H         1 <0>         0.1313
     36 H11         1.3710   -5.9538   -4.4218 H         1 <0>         0.1396
     37 H12         4.3164   -5.0114   -1.4796 H         1 <0>         0.1448
     38 H13         2.7681   -4.9784    1.1892 H         1 <0>         0.1516
     39 H14         4.7137   -6.5238    0.6360 H         1 <0>         0.1230
@<TRIPOS>BOND
     1    1    2 1
     2    1   26 1
     3    1   27 1
     4    1   28 1
     5    2    7 ar
     6    2    3 ar
     7    3    4 ar
     8    3   29 1
     9    4    5 ar
    10    4   30 1
    11    5    6 ar
    12    5    8 1
    13    6    7 ar
    14    6   31 1
    15    7   32 1
    16    8    9 1
    17    8   33 1
    18    8   34 1
    19    9   17 am
    20    9   10 1
    21   10   15 ar
    22   10   11 ar
    23   11   12 ar
    24   11   35 1
    25   12   13 ar
    26   12   36 1
    27   13   14 ar
    28   13   25 1
    29   14   15 ar
    30   14   37 1
    31   15   16 1
    32   16   17 1
    33   16   19 1
    34   16   38 1
    35   17   18 2
    36   19   20 1
    37   19   22 1
    38   19   39 1
    39   20   21 3
    40   22   23 2
    41   22   24 1
@<TRIPOS>MOLECULE
CHEMBL30993__3
   39    41     0     0     0
SMALL
USER_CHARGES

@<TRIPOS>ATOM
      1 C1         -0.0184    1.5028    0.0103 C.3       1 <0>        -0.1145
      2 C2          0.0021   -0.0041    0.0020 C.ar      1 <0>        -0.0835
      3 C3          0.0057   -0.6887   -1.1989 C.ar      1 <0>        -0.1263
      4 C4          0.0245   -2.0709   -1.2065 C.ar      1 <0>        -0.0979
      5 C5          0.0400   -2.7685   -0.0132 C.ar      1 <0>        -0.1164
      6 C6          0.0373   -2.0839    1.1877 C.ar      1 <0>        -0.0884
      7 C7          0.0229   -0.7016    1.1953 C.ar      1 <0>        -0.1220
      8 C8          0.0595   -4.2753   -0.0215 C.3       1 <0>         0.1518
      9 N1          1.4468   -4.7457   -0.0317 N.am      1 <0>        -0.5548
     10 C9          2.1795   -4.9842   -1.1964 C.ar      1 <0>         0.1556
     11 C10         1.8251   -4.8537   -2.5378 C.ar      1 <0>        -0.1200
     12 C11         2.7369   -5.1547   -3.5280 C.ar      1 <0>        -0.1170
     13 C12         4.0101   -5.5889   -3.1984 C.ar      1 <0>         0.0685
     14 C13         4.3688   -5.7208   -1.8663 C.ar      1 <0>        -0.0956
     15 C14         3.4591   -5.4200   -0.8776 C.ar      1 <0>        -0.1140
     16 C15         3.5322   -5.4572    0.6316 C.3       1 <0>        -0.0479
     17 C16         2.1627   -4.9919    1.0784 C.2       1 <0>         0.5369
     18 O1          1.7822   -4.8672    2.2233 O.2       1 <0>        -0.4291
     19 C17         3.8049   -6.8812    1.1201 C.3       1 <0>        -0.0528
     20 C18         5.0852   -7.3527    0.5677 C.1       1 <0>         0.2507
     21 N2          6.0733   -7.7166    0.1414 N.1       1 <0>        -0.4601
     22 C19         3.8731   -6.8914    2.6255 C.2       1 <0>         0.5040
     23 O2          3.7180   -5.8557    3.2498 O.co2     1 <0>        -0.6423
     24 O3          4.0834   -7.9354    3.2192 O.co2     1 <0>        -0.6812
     25 F1          4.8991   -5.8832   -4.1721 F         1 <0>        -0.1401
     26 H1          1.0042    1.8801    0.0026 H         1 <0>         0.0698
     27 H2         -0.5455    1.8639   -0.8728 H         1 <0>         0.0645
     28 H3         -0.5286    1.8543    0.9071 H         1 <0>         0.0655
     29 H4         -0.0064   -0.1436   -2.1312 H         1 <0>         0.1202
     30 H5          0.0266   -2.6057   -2.1448 H         1 <0>         0.1203
     31 H6          0.0491   -2.6289    2.1200 H         1 <0>         0.1300
     32 H7          0.0245   -0.1667    2.1335 H         1 <0>         0.1223
     33 H8         -0.4447   -4.6501    0.8693 H         1 <0>         0.1002
     34 H9         -0.4546   -4.6404   -0.9106 H         1 <0>         0.0913
     35 H10         0.8339   -4.5163   -2.8026 H         1 <0>         0.1323
     36 H11         2.4564   -5.0515   -4.5659 H         1 <0>         0.1396
     37 H12         5.3603   -6.0594   -1.6042 H         1 <0>         0.1373
     38 H13         4.3010   -4.7745    0.9936 H         1 <0>         0.1322
     39 H14         3.0017   -7.5392    0.7883 H         1 <0>         0.1106
@<TRIPOS>BOND
     1    1    2 1
     2    1   26 1
     3    1   27 1
     4    1   28 1
     5    2    7 ar
     6    2    3 ar
     7    3    4 ar
     8    3   29 1
     9    4    5 ar
    10    4   30 1
    11    5    6 ar
    12    5    8 1
    13    6    7 ar
    14    6   31 1
    15    7   32 1
    16    8    9 1
    17    8   33 1
    18    8   34 1
    19    9   17 am
    20    9   10 1
    21   10   15 ar
    22   10   11 ar
    23   11   12 ar
    24   11   35 1
    25   12   13 ar
    26   12   36 1
    27   13   14 ar
    28   13   25 1
    29   14   15 ar
    30   14   37 1
    31   15   16 1
    32   16   17 1
    33   16   19 1
    34   16   38 1
    35   17   18 2
    36   19   20 1
    37   19   22 1
    38   19   39 1
    39   20   21 3
    40   22   23 2
    41   22   24 1
@<TRIPOS>MOLECULE
CHEMBL45352
   45    47     0     0     0
SMALL
USER_CHARGES

@<TRIPOS>ATOM
      1 C1         -0.0167    1.3781    0.0096 C.ar      1 <0>        -0.1294
      2 C2          1.1709    2.0855    0.0021 C.ar      1 <0>        -0.1202
      3 C3          2.3773    1.4107   -0.0130 C.ar      1 <0>        -0.1160
      4 C4          2.3960    0.0285   -0.0201 C.ar      1 <0>        -0.0720
      5 C5          1.2084   -0.6789   -0.0117 C.ar      1 <0>        -0.1132
      6 C6          0.0021   -0.0041    0.0020 C.ar      1 <0>        -0.1206
      7 C7          3.7112   -0.7071   -0.0376 C.3       1 <0>        -0.0967
      8 C8          4.1714   -0.9633    1.3989 C.3       1 <0>         0.1320
      9 N1          5.4498   -1.6784    1.3820 N.am      1 <0>        -0.5744
     10 C9          6.7084   -0.9287    1.3725 C.3       1 <0>         0.0334
     11 C10         7.1549   -0.6788    2.7900 C.2       1 <0>         0.4763
     12 O1          6.4839   -1.0888    3.7217 O.co2     1 <0>        -0.6784
     13 O2          8.1871   -0.0664    3.0050 O.co2     1 <0>        -0.6970
     14 C11         5.4681   -3.0260    1.3750 C.2       1 <0>         0.5292
     15 O3          4.4262   -3.6467    1.3829 O.2       1 <0>        -0.5625
     16 C12         6.7833   -3.7617    1.3576 C.3       1 <0>        -0.1365
     17 C13         6.5241   -5.2696    1.3528 C.3       1 <0>        -0.0234
     18 C14         7.8392   -6.0052    1.3353 C.2       1 <0>         0.1368
     19 N2          8.5433   -6.4047    2.3538 N.2       1 <0>        -0.5042
     20 C15         9.7139   -7.0593    2.2059 C.ar      1 <0>         0.1180
     21 C16        10.6005   -7.5603    3.1851 C.ar      1 <0>         0.1127
     22 C17        11.7563   -8.2050    2.8135 C.ar      1 <0>         0.1089
     23 C18        12.0874   -8.3833    1.4754 C.ar      1 <0>        -0.1515
     24 C19        11.2387   -7.9035    0.4935 C.ar      1 <0>         0.1880
     25 C20        10.0797   -7.2570    0.8566 C.ar      1 <0>        -0.2201
     26 S1          8.7258   -6.5023   -0.0062 S.3       1 <0>         0.1548
     27 F1         11.5455   -8.0689   -0.8117 F         1 <0>        -0.1149
     28 F2         12.5881   -8.6746    3.7689 F         1 <0>        -0.1130
     29 F3         10.3107   -7.4045    4.4954 F         1 <0>        -0.1052
     30 H1         -0.9591    1.9053    0.0259 H         1 <0>         0.1175
     31 H2          1.1563    3.1654    0.0076 H         1 <0>         0.1194
     32 H3          3.3051    1.9634   -0.0196 H         1 <0>         0.1221
     33 H4          1.2231   -1.7588   -0.0176 H         1 <0>         0.1232
     34 H5         -0.9258   -0.5567    0.0082 H         1 <0>         0.1191
     35 H6          3.5884   -1.6586   -0.5549 H         1 <0>         0.0752
     36 H7          4.4573   -0.1052   -0.5563 H         1 <0>         0.0718
     37 H8          4.2941   -0.0118    1.9163 H         1 <0>         0.0762
     38 H9          3.4252   -1.5652    1.9176 H         1 <0>         0.0818
     39 H10         7.4706   -1.5048    0.8478 H         1 <0>         0.0762
     40 H11         6.5598    0.0244    0.8650 H         1 <0>         0.0775
     41 H12         7.3418   -3.4862    0.4631 H         1 <0>         0.0934
     42 H13         7.3605   -3.4951    2.2429 H         1 <0>         0.1093
     43 H14         5.9655   -5.5451    2.2473 H         1 <0>         0.1162
     44 H15         5.9469   -5.5362    0.4674 H         1 <0>         0.1072
     45 H16        13.0005   -8.8923    1.2040 H         1 <0>         0.1728
@<TRIPOS>BOND
     1    1    6 ar
     2    1    2 ar
     3    1   30 1
     4    2    3 ar
     5    2   31 1
     6    3    4 ar
     7    3   32 1
     8    4    5 ar
     9    4    7 1
    10    5    6 ar
    11    5   33 1
    12    6   34 1
    13    7    8 1
    14    7   35 1
    15    7   36 1
    16    8    9 1
    17    8   37 1
    18    8   38 1
    19    9   10 1
    20    9   14 am
    21   10   11 1
    22   10   39 1
    23   10   40 1
    24   11   12 2
    25   11   13 1
    26   14   15 2
    27   14   16 1
    28   16   17 1
    29   16   41 1
    30   16   42 1
    31   17   18 1
    32   17   43 1
    33   17   44 1
    34   18   26 1
    35   18   19 2
    36   19   20 1
    37   20   25 ar
    38   20   21 ar
    39   21   22 ar
    40   21   29 1
    41   22   23 ar
    42   22   28 1
    43   23   24 ar
    44   23   45 1
    45   24   25 ar
    46   24   27 1
    47   25   26 1
@<TRIPOS>MOLECULE
CHEMBL20207
   37    40     0     0     0
SMALL
USER_CHARGES

@<TRIPOS>ATOM
      1 C1         -0.0165    1.3627    0.0095 C.ar      1 <0>        -0.0916
      2 C2          1.1654    2.0924    0.0022 C.ar      1 <0>        -0.1277
      3 C3          2.3861    1.4540   -0.0134 C.ar      1 <0>        -0.0553
      4 C4          2.4294    0.0605   -0.0213 C.ar      1 <0>        -0.1341
      5 C5          1.2244   -0.6786   -0.0133 C.ar      1 <0>        -0.0424
      6 C6          0.0021   -0.0041    0.0020 C.ar      1 <0>        -0.1004
      7 C7          1.3000   -2.1396   -0.0224 C.2       1 <0>         0.1240
      8 N1          2.4575   -2.7306   -0.0371 N.2       1 <0>        -0.1210
      9 N2          3.6626   -2.0276   -0.0452 N.am      1 <0>        -0.4402
     10 C8          3.6977   -0.6787   -0.0384 C.2       1 <0>         0.5189
     11 O1          4.7616   -0.0856   -0.0461 O.2       1 <0>        -0.5360
     12 C9          4.9232   -2.7737   -0.0618 C.3       1 <0>         0.2208
     13 C10         5.3696   -3.0372    1.3533 C.2       1 <0>         0.0920
     14 N3          5.0869   -4.0641    2.1007 N.2       1 <0>        -0.4735
     15 C11         5.5517   -4.1853    3.3612 C.ar      1 <0>         0.0988
     16 C12         5.3510   -5.2147    4.3049 C.ar      1 <0>        -0.0479
     17 C13         5.9179   -5.1420    5.5403 C.ar      1 <0>        -0.1043
     18 C14         6.7072   -4.0639    5.9162 C.ar      1 <0>        -0.0914
     19 C15         6.9276   -3.0350    5.0182 C.ar      1 <0>         0.0174
     20 C16         6.3593   -3.0996    3.7681 C.ar      1 <0>        -0.1816
     21 S1          6.3524   -2.0732    2.3215 S.3       1 <0>         0.1325
     22 Cl1         7.9107   -1.6759    5.4656 Cl        1 <0>        -0.0605
     23 C17         0.0356   -2.9595   -0.0143 C.3       1 <0>        -0.1331
     24 C18         0.3870   -4.4249   -0.0262 C.2       1 <0>         0.4880
     25 O2          1.5559   -4.7714   -0.0401 O.co2     1 <0>        -0.6468
     26 O3         -0.4975   -5.2640   -0.0221 O.co2     1 <0>        -0.7058
     27 H1         -0.9631    1.8823    0.0259 H         1 <0>         0.1303
     28 H2          1.1269    3.1717    0.0083 H         1 <0>         0.1302
     29 H3          3.3010    2.0277   -0.0197 H         1 <0>         0.1384
     30 H4         -0.9242   -0.5594    0.0075 H         1 <0>         0.1406
     31 H5          4.7775   -3.7219   -0.5793 H         1 <0>         0.1354
     32 H6          5.6841   -2.1901   -0.5800 H         1 <0>         0.1219
     33 H7          4.7419   -6.0678    4.0449 H         1 <0>         0.1431
     34 H8          5.7491   -5.9425    6.2453 H         1 <0>         0.1434
     35 H9          7.1457   -4.0284    6.9025 H         1 <0>         0.1457
     36 H10        -0.5398   -2.7311    0.8829 H         1 <0>         0.0853
     37 H11        -0.5578   -2.7210   -0.8970 H         1 <0>         0.0868
@<TRIPOS>BOND
     1    1    6 ar
     2    1    2 ar
     3    1   27 1
     4    2    3 ar
     5    2   28 1
     6    3    4 ar
     7    3   29 1
     8    4   10 1
     9    4    5 ar
    10    5    6 ar
    11    5    7 1
    12    6   30 1
    13    7    8 2
    14    7   23 1
    15    8    9 1
    16    9   10 am
    17    9   12 1
    18   10   11 2
    19   12   13 1
    20   12   31 1
    21   12   32 1
    22   13   21 1
    23   13   14 2
    24   14   15 1
    25   15   20 ar
    26   15   16 ar
    27   16   17 ar
    28   16   33 1
    29   17   18 ar
    30   17   34 1
    31   18   19 ar
    32   18   35 1
    33   19   20 ar
    34   19   22 1
    35   20   21 1
    36   23   24 1
    37   23   36 1
    38   23   37 1
    39   24   25 2
    40   24   26 1
@<TRIPOS>MOLECULE
CHEMBL64091
   38    41     0     0     0
SMALL
USER_CHARGES

@<TRIPOS>ATOM
      1 C1         -0.0166    1.3759    0.0096 C.ar      1 <0>        -0.1386
      2 C2          1.1674    2.0924    0.0021 C.ar      1 <0>        -0.0729
      3 C3          2.3845    1.4303   -0.0142 C.ar      1 <0>        -0.1148
      4 C4          2.4149    0.0573   -0.0218 C.ar      1 <0>         0.0036
      5 C5          1.2222   -0.6781   -0.0131 C.ar      1 <0>        -0.1503
      6 C6          0.0021   -0.0041    0.0020 C.ar      1 <0>        -0.0442
      7 C7          1.2814   -2.1507   -0.0191 C.2       1 <0>         0.5778
      8 O1          0.2396   -2.7760   -0.0137 O.2       1 <0>        -0.5076
      9 N1          2.4382   -2.8282   -0.0309 N.am      1 <0>        -0.5602
     10 C8          3.6414   -2.2201   -0.0400 C.2       1 <0>         0.5556
     11 O2          4.6608   -2.8761   -0.0495 O.2       1 <0>        -0.4564
     12 C9          3.7025   -0.7162   -0.0391 C.3       1 <0>        -0.1556
     13 C10         4.5481   -0.2730    1.1639 C.3       1 <0>        -0.1553
     14 C11         5.7510    0.3771    0.5095 C.2       1 <0>         0.4794
     15 O3          6.7856    0.9256    1.1642 O.3       1 <0>        -0.6323
     16 N2          5.6265    0.3211   -0.7845 N.2       1 <0>        -0.6769
     17 C12         4.5156   -0.2705   -1.2268 C.2       1 <0>         0.5439
     18 O4          4.2110   -0.4249   -2.3919 O.2       1 <0>        -0.5206
     19 C13         2.3929   -4.2925   -0.0335 C.3       1 <0>         0.1358
     20 C14         2.3646   -4.7917   -1.4551 C.ar      1 <0>        -0.1369
     21 C15         1.1671   -5.1748   -2.0294 C.ar      1 <0>        -0.0576
     22 C16         1.1403   -5.6323   -3.3333 C.ar      1 <0>        -0.1113
     23 C17         2.3121   -5.7077   -4.0651 C.ar      1 <0>        -0.0551
     24 C18         3.5109   -5.3253   -3.4921 C.ar      1 <0>        -0.1340
     25 C19         3.5371   -4.8612   -2.1879 C.ar      1 <0>         0.1335
     26 F1          4.7071   -4.4821   -1.6287 F         1 <0>        -0.1035
     27 Br1         2.2741   -6.3344   -5.8488 Br        1 <0>        -0.0407
     28 H1         -0.9609    1.8998    0.0260 H         1 <0>         0.1325
     29 H2          1.1426    3.1721    0.0087 H         1 <0>         0.1337
     30 H3          3.3066    1.9924   -0.0213 H         1 <0>         0.1361
     31 H4         -0.9243   -0.5592    0.0077 H         1 <0>         0.1387
     32 H5          4.0037    0.4482    1.7735 H         1 <0>         0.0997
     33 H6          4.8512   -1.1334    1.7605 H         1 <0>         0.0963
     34 H7          3.2757   -4.6842    0.4717 H         1 <0>         0.1097
     35 H8          1.4967   -4.6291    0.4878 H         1 <0>         0.1138
     36 H9          0.2519   -5.1170   -1.4588 H         1 <0>         0.1476
     37 H10         0.2041   -5.9314   -3.7811 H         1 <0>         0.1404
     38 H11         4.4258   -5.3849   -4.0629 H         1 <0>         0.1468
@<TRIPOS>BOND
     1    1    6 ar
     2    1    2 ar
     3    1   28 1
     4    2    3 ar
     5    2   29 1
     6    3    4 ar
     7    3   30 1
     8    4   12 1
     9    4    5 ar
    10    5    6 ar
    11    5    7 1
    12    6   31 1
    13    7    8 2
    14    7    9 am
    15    9   10 am
    16    9   19 1
    17   10   11 2
    18   10   12 1
    19   12   17 1
    20   12   13 1
    21   13   14 1
    22   13   32 1
    23   13   33 1
    24   14   15 1
    25   14   16 2
    26   16   17 1
    27   17   18 2
    28   19   20 1
    29   19   34 1
    30   19   35 1
    31   20   25 ar
    32   20   21 ar
    33   21   22 ar
    34   21   36 1
    35   22   23 ar
    36   22   37 1
    37   23   24 ar
    38   23   27 1
    39   24   25 ar
    40   24   38 1
    41   25   26 1
@<TRIPOS>MOLECULE
CHEMBL268279
   28    30     0     0     0
SMALL
USER_CHARGES

@<TRIPOS>ATOM
      1 C1         -0.0164    1.3582    0.0095 C.ar      1 <0>        -0.1036
      2 C2          1.1677    2.0903    0.0021 C.ar      1 <0>        -0.1294
      3 C3          2.3775    1.4634   -0.0127 C.ar      1 <0>        -0.0814
      4 C4          2.4341    0.0613   -0.0208 C.ar      1 <0>        -0.0628
      5 C5          1.2300   -0.6842   -0.0133 C.ar      1 <0>        -0.0119
      6 C6          0.0021   -0.0041    0.0020 C.ar      1 <0>        -0.1135
      7 C7          1.2760   -2.0938   -0.0229 C.ar      1 <0>        -0.1363
      8 C8          2.4666   -2.7393   -0.0393 C.ar      1 <0>        -0.0431
      9 C9          3.6773   -2.0177   -0.0470 C.ar      1 <0>        -0.1283
     10 C10         3.6699   -0.6194   -0.0372 C.ar      1 <0>         0.1586
     11 O1          4.8321    0.0618   -0.0451 O.3       1 <0>        -0.2700
     12 C11         6.0162   -0.5689   -0.0611 C.2       1 <0>         0.5148
     13 O2          7.0413    0.0894   -0.0674 O.2       1 <0>        -0.4866
     14 C12         6.1010   -1.9762   -0.0705 C.2       1 <0>        -0.2809
     15 C13         4.9631   -2.7187   -0.0647 C.2       1 <0>         0.0945
     16 C14         5.0227   -4.2245   -0.0745 C.3       1 <0>        -0.1726
     17 C15         4.9335   -4.7400    1.3387 C.2       1 <0>         0.5024
     18 O3          4.8311   -3.9572    2.2679 O.co2     1 <0>        -0.6808
     19 O4          4.9638   -5.9399    1.5530 O.co2     1 <0>        -0.6888
     20 H1         -0.9632    1.8776    0.0259 H         1 <0>         0.1244
     21 H2          1.1270    3.1696    0.0079 H         1 <0>         0.1253
     22 H3          3.2888    2.0430   -0.0187 H         1 <0>         0.1336
     23 H4         -0.9246   -0.5587    0.0075 H         1 <0>         0.1319
     24 H5          0.3572   -2.6614   -0.0168 H         1 <0>         0.1360
     25 H6          2.4885   -3.8190   -0.0461 H         1 <0>         0.1396
     26 H7          7.0656   -2.4616   -0.0838 H         1 <0>         0.1575
     27 H8          4.1898   -4.6172   -0.6578 H         1 <0>         0.0848
     28 H9          5.9631   -4.5480   -0.5207 H         1 <0>         0.0870
@<TRIPOS>BOND
     1    1    6 ar
     2    1    2 ar
     3    1   20 1
     4    2    3 ar
     5    2   21 1
     6    3    4 ar
     7    3   22 1
     8    4   10 ar
     9    4    5 ar
    10    5    6 ar
    11    5    7 ar
    12    6   23 1
    13    7    8 ar
    14    7   24 1
    15    8    9 ar
    16    8   25 1
    17    9   15 1
    18    9   10 ar
    19   10   11 1
    20   11   12 1
    21   12   13 2
    22   12   14 1
    23   14   15 2
    24   14   26 1
    25   15   16 1
    26   16   17 1
    27   16   27 1
    28   16   28 1
    29   17   18 2
    30   17   19 1
@<TRIPOS>MOLECULE
CHEMBL302057
   45    47     0     0     0
SMALL
USER_CHARGES

@<TRIPOS>ATOM
      1 C1          0.8418    1.2122    3.4168 C.ar      1 <0>        -0.0929
      2 C2          2.1080    1.6932    3.6993 C.ar      1 <0>        -0.1280
      3 C3          3.2216    0.9496    3.3676 C.ar      1 <0>        -0.0572
      4 C4          3.0688   -0.2909    2.7460 C.ar      1 <0>        -0.1347
      5 C5          1.7885   -0.7705    2.4643 C.ar      1 <0>        -0.0853
      6 C6          0.6833   -0.0166    2.8009 C.ar      1 <0>        -0.1267
      7 C7          4.2575   -1.0928    2.3873 C.2       1 <0>         0.5579
      8 O1          5.3711   -0.6725    2.6335 O.2       1 <0>        -0.5120
      9 N1          4.1066   -2.2902    1.7872 N.am      1 <0>        -0.6655
     10 C8          5.2258   -2.9986    1.3544 C.ar      1 <0>         0.1613
     11 C9          6.4104   -2.9372    2.0819 C.ar      1 <0>        -0.1352
     12 C10         7.5180   -3.6354    1.6568 C.ar      1 <0>        -0.0429
     13 C11         7.4516   -4.4070    0.4933 C.ar      1 <0>        -0.1448
     14 C12         6.2600   -4.4669   -0.2348 C.ar      1 <0>        -0.0695
     15 C13         5.1546   -3.7704    0.1986 C.ar      1 <0>        -0.1494
     16 C14         8.6370   -5.1564    0.0344 C.2       1 <0>         0.5605
     17 O2          9.7524   -4.7539    0.3034 O.2       1 <0>        -0.5295
     18 N2          8.4834   -6.2870   -0.6830 N.am      1 <0>        -0.5112
     19 C15         7.1435   -6.8344   -0.9096 C.3       1 <0>        -0.0024
     20 C16         6.7698   -6.6635   -2.3595 C.2       1 <0>         0.4798
     21 O3          7.5503   -6.1337   -3.1319 O.co2     1 <0>        -0.6648
     22 O4          5.6869   -7.0552   -2.7601 O.co2     1 <0>        -0.6898
     23 C17         9.6031   -6.9377   -1.2109 C.ar      1 <0>         0.1872
     24 C18         9.4648   -8.1797   -1.8171 C.ar      1 <0>        -0.1383
     25 C19        10.5725   -8.8196   -2.3374 C.ar      1 <0>        -0.1019
     26 C20        11.8184   -8.2252   -2.2554 C.ar      1 <0>        -0.1589
     27 C21        11.9595   -6.9887   -1.6525 C.ar      1 <0>        -0.1063
     28 C22        10.8549   -6.3408   -1.1352 C.ar      1 <0>        -0.1678
     29 H1         -0.0268    1.7965    3.6823 H         1 <0>         0.1278
     30 H2          2.2248    2.6532    4.1802 H         1 <0>         0.1309
     31 H3          4.2094    1.3266    3.5880 H         1 <0>         0.1379
     32 H4          1.6634   -1.7294    1.9832 H         1 <0>         0.1278
     33 H5         -0.3078   -0.3864    2.5832 H         1 <0>         0.1307
     34 H6          3.2189   -2.6588    1.6567 H         1 <0>         0.4111
     35 H7          6.4611   -2.3407    2.9808 H         1 <0>         0.1447
     36 H8          8.4373   -3.5867    2.2214 H         1 <0>         0.1369
     37 H9          6.2056   -5.0620   -1.1345 H         1 <0>         0.1618
     38 H10         4.2323   -3.8198   -0.3611 H         1 <0>         0.1341
     39 H11         7.1361   -7.8942   -0.6550 H         1 <0>         0.0780
     40 H12         6.4244   -6.3054   -0.2843 H         1 <0>         0.1089
     41 H13         8.4921   -8.6446   -1.8812 H         1 <0>         0.1201
     42 H14        10.4657   -9.7855   -2.8086 H         1 <0>         0.1173
     43 H15        12.6831   -8.7278   -2.6627 H         1 <0>         0.1123
     44 H16        12.9339   -6.5271   -1.5900 H         1 <0>         0.1163
     45 H17        10.9651   -5.3732   -0.6685 H         1 <0>         0.1719
@<TRIPOS>BOND
     1    1    6 ar
     2    1    2 ar
     3    1   29 1
     4    2    3 ar
     5    2   30 1
     6    3    4 ar
     7    3   31 1
     8    4    5 ar
     9    4    7 1
    10    5    6 ar
    11    5   32 1
    12    6   33 1
    13    7    8 2
    14    7    9 am
    15    9   10 1
    16    9   34 1
    17   10   15 ar
    18   10   11 ar
    19   11   12 ar
    20   11   35 1
    21   12   13 ar
    22   12   36 1
    23   13   14 ar
    24   13   16 1
    25   14   15 ar
    26   14   37 1
    27   15   38 1
    28   16   17 2
    29   16   18 am
    30   18   19 1
    31   18   23 1
    32   19   20 1
    33   19   39 1
    34   19   40 1
    35   20   21 2
    36   20   22 1
    37   23   28 ar
    38   23   24 ar
    39   24   25 ar
    40   24   41 1
    41   25   26 ar
    42   25   42 1
    43   26   27 ar
    44   26   43 1
    45   27   28 ar
    46   27   44 1
    47   28   45 1
@<TRIPOS>MOLECULE
CHEMBL266773
   32    33     0     0     0
SMALL
USER_CHARGES

@<TRIPOS>ATOM
      1 C1         -0.0187    1.5258    0.0104 C.3       1 <0>        -0.1470
      2 C2          0.0021   -0.0041    0.0020 C.3       1 <0>         0.0638
      3 O1          0.6932   -0.4774    1.1597 O.3       1 <0>        -0.3706
      4 C3          0.8011   -1.8139    1.3045 C.2       1 <0>         0.5371
      5 O2          0.3213   -2.5564    0.4702 O.2       1 <0>        -0.5345
      6 C4          1.4972   -2.3713    2.4682 C.2       1 <0>        -0.4654
      7 C5          1.6879   -3.6815    2.7423 C.2       1 <0>         0.2817
      8 C6          2.4369   -3.8087    4.0110 C.2       1 <0>         0.5144
      9 O3          2.7637   -4.8596    4.5257 O.2       1 <0>        -0.5315
     10 N1          2.7034   -2.5883    4.5107 N.am      1 <0>        -0.6137
     11 C7          2.1453   -1.5921    3.5887 C.3       1 <0>         0.1939
     12 C8          3.4272   -2.3040    5.7523 C.3       1 <0>         0.1728
     13 C9          4.8998   -2.1784    5.4578 C.ar      1 <0>        -0.0607
     14 C10         5.7294   -3.2885    5.5010 C.ar      1 <0>        -0.1489
     15 C11         7.0749   -3.1348    5.2250 C.ar      1 <0>         0.0935
     16 N2          7.5708   -1.9506    4.9241 N.ar      1 <0>        -0.4882
     17 C12         6.8118   -0.8734    4.8737 C.ar      1 <0>         0.0911
     18 C13         5.4562   -0.9511    5.1315 C.ar      1 <0>        -0.1566
     19 O4          1.2608   -4.7124    1.9775 O.3       1 <0>        -0.6120
     20 H1          1.0039    1.9031    0.0027 H         1 <0>         0.0614
     21 H2         -0.5459    1.8868   -0.8726 H         1 <0>         0.0689
     22 H3         -0.5289    1.8773    0.9072 H         1 <0>         0.0614
     23 H4         -1.0205   -0.3814    0.0098 H         1 <0>         0.0559
     24 H5          0.5123   -0.3556   -0.8948 H         1 <0>         0.0557
     25 H6          2.9390   -0.9579    3.1938 H         1 <0>         0.0552
     26 H7          1.4003   -0.9847    4.1026 H         1 <0>         0.0583
     27 H8          3.0615   -1.3708    6.1806 H         1 <0>         0.0909
     28 H9          3.2664   -3.1166    6.4608 H         1 <0>         0.0918
     29 H10         5.3294   -4.2609    5.7475 H         1 <0>         0.1384
     30 H11         7.7278   -3.9945    5.2566 H         1 <0>         0.1543
     31 H12         7.2538    0.0798    4.6239 H         1 <0>         0.1537
     32 H13         4.8389   -0.0662    5.0838 H         1 <0>         0.1349
@<TRIPOS>BOND
     1    1    2 1
     2    1   20 1
     3    1   21 1
     4    1   22 1
     5    2    3 1
     6    2   23 1
     7    2   24 1
     8    3    4 1
     9    4    5 2
    10    4    6 1
    11    6   11 1
    12    6    7 2
    13    7    8 1
    14    7   19 1
    15    8    9 2
    16    8   10 am
    17   10   11 1
    18   10   12 1
    19   11   25 1
    20   11   26 1
    21   12   13 1
    22   12   27 1
    23   12   28 1
    24   13   18 ar
    25   13   14 ar
    26   14   15 ar
    27   14   29 1
    28   15   16 ar
    29   15   30 1
    30   16   17 ar
    31   17   18 ar
    32   17   31 1
    33   18   32 1
@<TRIPOS>MOLECULE
CHEMBL416825
   63    65     0     0     0
SMALL
USER_CHARGES

@<TRIPOS>ATOM
      1 C1         -3.1239   -0.4775   -0.9893 C.3       1 <0>        -0.1517
      2 C2         -4.2116   -1.0820   -1.8794 C.3       1 <0>        -0.1429
      3 C3         -5.2728   -0.0214   -2.1795 C.3       1 <0>         0.0844
      4 C4         -6.2936   -0.5871   -3.1689 C.3       1 <0>        -0.1206
      5 C5         -7.2826    0.5111   -3.5650 C.3       1 <0>        -0.1566
      6 O1         -5.9361    0.3449   -0.9680 O.3       1 <0>        -0.3414
      7 C6         -5.4096    1.3626   -0.2687 C.2       1 <0>         0.4656
      8 O2         -4.4184    1.9238   -0.6720 O.2       1 <0>        -0.5020
      9 C7         -6.0548    1.8053    1.0192 C.3       1 <0>        -0.1067
     10 C8         -5.2633    2.9733    1.6110 C.3       1 <0>        -0.0992
     11 C9         -5.9084    3.4159    2.8990 C.2       1 <0>         0.4564
     12 O3         -6.8996    2.8547    3.3022 O.2       1 <0>        -0.4852
     13 O4         -5.3819    4.4337    3.5983 O.3       1 <0>        -0.2885
     14 C10        -6.0532    4.8670    4.6986 C.ar      1 <0>         0.0498
     15 C11        -6.0104    4.1233    5.8746 C.ar      1 <0>        -0.0980
     16 C12        -6.6855    4.5486    6.9978 C.ar      1 <0>        -0.1164
     17 C13        -7.4174    5.7293    6.9631 C.ar      1 <0>         0.1152
     18 C14        -7.4624    6.4830    5.7776 C.ar      1 <0>        -0.0630
     19 C15        -6.7707    6.0467    4.6470 C.ar      1 <0>        -0.0509
     20 C16        -8.3039    7.6493    6.0672 C.2       1 <0>        -0.0703
     21 C17        -8.7007    7.5437    7.3430 C.2       1 <0>         0.0665
     22 N1         -8.1819    6.4006    7.9011 N.am      1 <0>        -0.5087
     23 C18        -8.3867    5.9943    9.1697 C.2       1 <0>         0.6100
     24 O5         -7.6814    6.4169   10.0645 O.2       1 <0>        -0.4379
     25 C19        -9.4682    5.0356    9.4724 C.ar      1 <0>        -0.1634
     26 C20       -10.3449    4.6265    8.4649 C.ar      1 <0>        -0.0360
     27 C21       -11.3525    3.7307    8.7537 C.ar      1 <0>        -0.1185
     28 C22       -11.4966    3.2369   10.0400 C.ar      1 <0>         0.0016
     29 C23       -10.6303    3.6388   11.0435 C.ar      1 <0>        -0.1281
     30 C24        -9.6152    4.5297   10.7660 C.ar      1 <0>        -0.0416
     31 Cl1       -12.7684    2.1102   10.3959 Cl        1 <0>        -0.0612
     32 C25        -9.5841    8.5324    8.0593 C.3       1 <0>        -0.0881
     33 C26        -8.6557    8.7586    5.1097 C.3       1 <0>        -0.1268
     34 C27        -9.9214    8.4035    4.3728 C.2       1 <0>         0.4977
     35 O6        -10.4855    7.3476    4.6037 O.co2     1 <0>        -0.6853
     36 O7        -10.3813    9.1722    3.5457 O.co2     1 <0>        -0.7035
     37 H1         -2.3679   -1.2331   -0.7755 H         1 <0>         0.0541
     38 H2         -2.6606    0.3648   -1.5030 H         1 <0>         0.0634
     39 H3         -3.5682   -0.1336   -0.0553 H         1 <0>         0.0497
     40 H4         -3.7673   -1.4259   -2.8134 H         1 <0>         0.0789
     41 H5         -4.6749   -1.9243   -1.3657 H         1 <0>         0.0720
     42 H6         -4.7955    0.8576   -2.6126 H         1 <0>         0.0856
     43 H7         -5.7765   -0.9482   -4.0579 H         1 <0>         0.0818
     44 H8         -6.8334   -1.4112   -2.7026 H         1 <0>         0.0750
     45 H9         -7.7997    0.8723   -2.6760 H         1 <0>         0.0614
     46 H10        -6.7427    1.3353   -4.0313 H         1 <0>         0.0539
     47 H11        -8.0098    0.1081   -4.2698 H         1 <0>         0.0591
     48 H12        -7.0787    2.1229    0.8223 H         1 <0>         0.1195
     49 H13        -6.0614    0.9756    1.7262 H         1 <0>         0.1167
     50 H14        -4.2394    2.6556    1.8080 H         1 <0>         0.1164
     51 H15        -5.2567    3.8029    0.9041 H         1 <0>         0.1192
     52 H16        -5.4433    3.2047    5.9067 H         1 <0>         0.1287
     53 H17        -6.6462    3.9642    7.9051 H         1 <0>         0.1218
     54 H18        -6.7994    6.6254    3.7357 H         1 <0>         0.1346
     55 H19       -10.2340    5.0113    7.4619 H         1 <0>         0.1512
     56 H20       -12.0310    3.4136    7.9756 H         1 <0>         0.1458
     57 H21       -10.7477    3.2504   12.0443 H         1 <0>         0.1425
     58 H22        -8.9379    4.8391   11.5482 H         1 <0>         0.1454
     59 H23       -10.6281    8.2470    7.9301 H         1 <0>         0.0810
     60 H24        -9.3375    8.5375    9.1210 H         1 <0>         0.0578
     61 H25        -9.4257    9.5280    7.6447 H         1 <0>         0.0888
     62 H26        -8.8063    9.6841    5.6654 H         1 <0>         0.0711
     63 H27        -7.8441    8.8921    4.3944 H         1 <0>         0.0699
@<TRIPOS>BOND
     1    1    2 1
     2    1   37 1
     3    1   38 1
     4    1   39 1
     5    2    3 1
     6    2   40 1
     7    2   41 1
     8    3    4 1
     9    3    6 1
    10    3   42 1
    11    4    5 1
    12    4   43 1
    13    4   44 1
    14    5   45 1
    15    5   46 1
    16    5   47 1
    17    6    7 1
    18    7    8 2
    19    7    9 1
    20    9   10 1
    21    9   48 1
    22    9   49 1
    23   10   11 1
    24   10   50 1
    25   10   51 1
    26   11   12 2
    27   11   13 1
    28   13   14 1
    29   14   19 ar
    30   14   15 ar
    31   15   16 ar
    32   15   52 1
    33   16   17 ar
    34   16   53 1
    35   17   22 1
    36   17   18 ar
    37   18   19 ar
    38   18   20 1
    39   19   54 1
    40   20   21 2
    41   20   33 1
    42   21   22 1
    43   21   32 1
    44   22   23 am
    45   23   24 2
    46   23   25 1
    47   25   30 ar
    48   25   26 ar
    49   26   27 ar
    50   26   55 1
    51   27   28 ar
    52   27   56 1
    53   28   29 ar
    54   28   31 1
    55   29   30 ar
    56   29   57 1
    57   30   58 1
    58   32   59 1
    59   32   60 1
    60   32   61 1
    61   33   34 1
    62   33   62 1
    63   33   63 1
    64   34   35 2
    65   34   36 1
@<TRIPOS>MOLECULE
CHEMBL342382
   39    42     0     0     0
SMALL
USER_CHARGES

@<TRIPOS>ATOM
      1 C1         -0.0167    1.3781    0.0096 C.ar      1 <0>        -0.1102
      2 C2          1.1709    2.0855    0.0021 C.ar      1 <0>        -0.1294
      3 C3          2.3773    1.4107   -0.0130 C.ar      1 <0>        -0.1004
      4 C4          2.3960    0.0285   -0.0201 C.ar      1 <0>        -0.1261
      5 C5          1.2084   -0.6789   -0.0117 C.ar      1 <0>        -0.0805
      6 C6          0.0021   -0.0041    0.0020 C.ar      1 <0>        -0.1172
      7 C7          3.7112   -0.7071   -0.0376 C.3       1 <0>         0.1790
      8 N1          4.1518   -0.9524    1.3379 N.pl3     1 <0>        -0.5021
      9 C8          4.9421   -0.1029    2.1036 C.ar      1 <0>         0.1446
     10 C9          5.5190    1.1341    1.8470 C.ar      1 <0>        -0.1218
     11 C10         6.2719    1.7577    2.8216 C.ar      1 <0>        -0.0896
     12 C11         6.4550    1.1554    4.0549 C.ar      1 <0>        -0.1265
     13 C12         5.8864   -0.0742    4.3200 C.ar      1 <0>        -0.0739
     14 C13         5.1270   -0.7095    3.3467 C.ar      1 <0>         0.0671
     15 N2          4.4460   -1.9251    3.3259 N.am      1 <0>        -0.4922
     16 C14         3.8482   -2.0652    2.0990 C.2       1 <0>         0.5203
     17 N3          3.1335   -3.1209    1.8051 N.2       1 <0>        -0.2984
     18 N4          2.9357   -4.1595    2.7194 N.am      1 <0>        -0.3537
     19 C15         3.4942   -4.0827    3.9471 C.2       1 <0>         0.4798
     20 O1          3.3389   -4.9723    4.7640 O.2       1 <0>        -0.4802
     21 C16         4.3089   -2.8838    4.2673 C.2       1 <0>         0.5189
     22 O2          4.8331   -2.7625    5.3582 O.2       1 <0>        -0.4579
     23 C17         2.1275   -5.3239    2.3488 C.3       1 <0>         0.0623
     24 C18         0.6866   -5.0710    2.7107 C.2       1 <0>         0.4897
     25 O3          0.3647   -4.0159    3.2301 O.co2     1 <0>        -0.6787
     26 O4         -0.1571   -5.9214    2.4842 O.co2     1 <0>        -0.6898
     27 H1         -0.9591    1.9053    0.0259 H         1 <0>         0.1208
     28 H2          1.1563    3.1654    0.0076 H         1 <0>         0.1205
     29 H3          3.3051    1.9634   -0.0196 H         1 <0>         0.1193
     30 H4          1.2231   -1.7588   -0.0176 H         1 <0>         0.1327
     31 H5         -0.9258   -0.5567    0.0082 H         1 <0>         0.1261
     32 H6          3.5884   -1.6586   -0.5549 H         1 <0>         0.1076
     33 H7          4.4573   -0.1052   -0.5563 H         1 <0>         0.1020
     34 H8          5.3790    1.6073    0.8863 H         1 <0>         0.1332
     35 H9          6.7204    2.7195    2.6212 H         1 <0>         0.1353
     36 H10         7.0454    1.6495    4.8124 H         1 <0>         0.1349
     37 H11         6.0319   -0.5413    5.2829 H         1 <0>         0.1381
     38 H12         2.2078   -5.4951    1.2753 H         1 <0>         0.0965
     39 H13         2.4880   -6.2019    2.8847 H         1 <0>         0.0999
@<TRIPOS>BOND
     1    1    6 ar
     2    1    2 ar
     3    1   27 1
     4    2    3 ar
     5    2   28 1
     6    3    4 ar
     7    3   29 1
     8    4    5 ar
     9    4    7 1
    10    5    6 ar
    11    5   30 1
    12    6   31 1
    13    7    8 1
    14    7   32 1
    15    7   33 1
    16    8   16 1
    17    8    9 1
    18    9   14 ar
    19    9   10 ar
    20   10   11 ar
    21   10   34 1
    22   11   12 ar
    23   11   35 1
    24   12   13 ar
    25   12   36 1
    26   13   14 ar
    27   13   37 1
    28   14   15 1
    29   15   21 am
    30   15   16 1
    31   16   17 2
    32   17   18 1
    33   18   19 am
    34   18   23 1
    35   19   20 2
    36   19   21 1
    37   21   22 2
    38   23   24 1
    39   23   38 1
    40   23   39 1
    41   24   25 2
    42   24   26 1
@<TRIPOS>MOLECULE
CHEMBL312109
   31    33     0     0     0
SMALL
USER_CHARGES

@<TRIPOS>ATOM
      1 C1         -0.0166    1.3730    0.0096 C.ar      1 <0>        -0.0950
      2 C2          1.1714    2.0834    0.0021 C.ar      1 <0>        -0.1284
      3 C3          2.3661    1.4030   -0.0123 C.ar      1 <0>        -0.0750
      4 C4          2.3914   -0.0026   -0.0196 C.ar      1 <0>        -0.1360
      5 C5          1.2027   -0.7138   -0.0132 C.ar      1 <0>        -0.0704
      6 C6          0.0021   -0.0041    0.0020 C.ar      1 <0>        -0.1286
      7 C7          1.0583   -2.2126   -0.0253 C.3       1 <0>         0.1089
      8 O1          2.2460   -2.9230    0.2178 O.3       1 <0>        -0.3276
      9 C8          3.2365   -2.9384   -0.6935 C.ar      1 <0>         0.1316
     10 C9          3.5007   -4.0790   -1.4416 C.ar      1 <0>        -0.1276
     11 C10         4.5076   -4.0574   -2.3871 C.ar      1 <0>         0.0190
     12 C11         5.2577   -2.9115   -2.5996 C.ar      1 <0>        -0.1226
     13 C12         5.0125   -1.7736   -1.8573 C.ar      1 <0>        -0.0567
     14 C13         4.0040   -1.7960   -0.8959 C.ar      1 <0>        -0.2085
     15 C14         3.7251   -0.6357   -0.0330 C.2       1 <0>         0.4583
     16 O2          4.6057   -0.1924    0.6785 O.2       1 <0>        -0.4448
     17 C15         4.7944   -5.2954   -3.1972 C.3       1 <0>        -0.1648
     18 C16         3.9576   -5.2807   -4.4504 C.2       1 <0>         0.4984
     19 O3          3.1987   -4.3510   -4.6658 O.co2     1 <0>        -0.6865
     20 O4          4.0394   -6.1984   -5.2489 O.co2     1 <0>        -0.6979
     21 H1         -0.9595    1.8993    0.0259 H         1 <0>         0.1284
     22 H2          1.1600    3.1633    0.0071 H         1 <0>         0.1301
     23 H3          3.2949    1.9541   -0.0176 H         1 <0>         0.1292
     24 H4         -0.9323   -0.5456    0.0090 H         1 <0>         0.1299
     25 H5          0.3278   -2.4940    0.7332 H         1 <0>         0.1204
     26 H6          0.6707   -2.5132   -0.9987 H         1 <0>         0.0781
     27 H7          2.9223   -4.9774   -1.2845 H         1 <0>         0.1316
     28 H8          6.0365   -2.9089   -3.3478 H         1 <0>         0.1279
     29 H9          5.5946   -0.8784   -2.0193 H         1 <0>         0.1276
     30 H10         5.8505   -5.3173   -3.4657 H         1 <0>         0.0759
     31 H11         4.5508   -6.1796   -2.6081 H         1 <0>         0.0750
@<TRIPOS>BOND
     1    1    6 ar
     2    1    2 ar
     3    1   21 1
     4    2    3 ar
     5    2   22 1
     6    3    4 ar
     7    3   23 1
     8    4   15 1
     9    4    5 ar
    10    5    6 ar
    11    5    7 1
    12    6   24 1
    13    7    8 1
    14    7   25 1
    15    7   26 1
    16    8    9 1
    17    9   14 ar
    18    9   10 ar
    19   10   11 ar
    20   10   27 1
    21   11   12 ar
    22   11   17 1
    23   12   13 ar
    24   12   28 1
    25   13   14 ar
    26   13   29 1
    27   14   15 1
    28   15   16 2
    29   17   18 1
    30   17   30 1
    31   17   31 1
    32   18   19 2
    33   18   20 1
@<TRIPOS>MOLECULE
CHEMBL276870
   29    31     0     0     0
SMALL
USER_CHARGES

@<TRIPOS>ATOM
      1 C1         -0.0168    1.3847    0.0097 C.ar      1 <0>        -0.1244
      2 C2          1.1365    2.1158    0.0026 C.ar      1 <0>        -0.0664
      3 C3          2.3869    1.4618   -0.0133 C.ar      1 <0>        -0.0490
      4 C4          3.5862    2.1772   -0.0219 C.ar      1 <0>        -0.1057
      5 C5          4.8232    1.4941   -0.0382 C.ar      1 <0>         0.1119
      6 C6          4.8661    0.0289   -0.0469 C.ar      1 <0>         0.0036
      7 C7          3.6860   -0.6786   -0.0385 C.ar      1 <0>        -0.1154
      8 C8          2.4155    0.0485   -0.0211 C.ar      1 <0>         0.0002
      9 C9          1.2137   -0.6878   -0.0131 C.ar      1 <0>        -0.1276
     10 C10         0.0021   -0.0041    0.0020 C.ar      1 <0>        -0.0200
     11 C11         1.2843   -2.1567   -0.0226 C.2       1 <0>         0.5688
     12 O1          0.2552   -2.8043   -0.0162 O.2       1 <0>        -0.4901
     13 N1          2.4668   -2.7959   -0.0386 N.am      1 <0>        -0.5240
     14 C12         3.6487   -2.1511   -0.0459 C.2       1 <0>         0.5729
     15 O2          4.6862   -2.7848   -0.0603 O.2       1 <0>        -0.4859
     16 C13         2.4695   -4.2609   -0.0473 C.3       1 <0>         0.0240
     17 C14         2.4558   -4.7547   -1.4710 C.2       1 <0>         0.4938
     18 O3          2.4448   -3.9570   -2.3929 O.co2     1 <0>        -0.6855
     19 O4          2.4558   -5.9521   -1.7009 O.co2     1 <0>        -0.6897
     20 N2          5.9543    2.1841   -0.0462 N.2       1 <0>        -0.4387
     21 C15         5.9241    3.4337   -0.0392 C.1       1 <0>         0.2137
     22 S1          5.8866    4.9868   -0.0306 S.2       1 <0>         0.0142
     23 H1         -0.9664    1.8987    0.0261 H         1 <0>         0.1396
     24 H2          1.0917    3.1948    0.0088 H         1 <0>         0.1396
     25 H3          3.5682    3.2571   -0.0163 H         1 <0>         0.1387
     26 H4          5.8134   -0.4895   -0.0601 H         1 <0>         0.1603
     27 H5         -0.9268   -0.5550    0.0083 H         1 <0>         0.1483
     28 H6          3.3654   -4.6255    0.4552 H         1 <0>         0.0959
     29 H7          1.5856   -4.6290    0.4735 H         1 <0>         0.0968
@<TRIPOS>BOND
     1    1   10 ar
     2    1    2 ar
     3    1   23 1
     4    2    3 ar
     5    2   24 1
     6    3    8 ar
     7    3    4 ar
     8    4    5 ar
     9    4   25 1
    10    5    6 ar
    11    5   20 1
    12    6    7 ar
    13    6   26 1
    14    7   14 1
    15    7    8 ar
    16    8    9 ar
    17    9   10 ar
    18    9   11 1
    19   10   27 1
    20   11   12 2
    21   11   13 am
    22   13   14 am
    23   13   16 1
    24   14   15 2
    25   16   17 1
    26   16   28 1
    27   16   29 1
    28   17   18 2
    29   17   19 1
    30   20   21 2
    31   21   22 2
@<TRIPOS>MOLECULE
CHEMBL295139
   61    64     0     0     0
SMALL
USER_CHARGES

@<TRIPOS>ATOM
      1 C1         -0.3717    1.5135    0.0088 C.3       1 <0>        -0.0873
      2 C2         -0.2416    0.0123   -0.0155 C.2       1 <0>         0.0633
      3 C3         -0.3038   -0.7479   -1.1176 C.2       1 <0>        -0.0686
      4 C4         -0.1295   -2.1412   -0.6927 C.ar      1 <0>        -0.0633
      5 C5         -0.1011   -3.3617   -1.3685 C.ar      1 <0>        -0.0516
      6 C6          0.0862   -4.5316   -0.6577 C.ar      1 <0>         0.0479
      7 C7          0.2458   -4.4941    0.7247 C.ar      1 <0>        -0.0961
      8 C8          0.2188   -3.2941    1.4010 C.ar      1 <0>        -0.1172
      9 C9          0.0319   -2.1072    0.7030 C.ar      1 <0>         0.1155
     10 N1         -0.0357   -0.7797    1.0880 N.am      1 <0>        -0.5091
     11 C10         0.0795   -0.3319    2.3540 C.2       1 <0>         0.6102
     12 O1         -0.8976   -0.2911    3.0753 O.2       1 <0>        -0.4384
     13 C11         1.3930    0.1089    2.8645 C.ar      1 <0>        -0.1634
     14 C12         2.4952    0.1654    2.0083 C.ar      1 <0>        -0.0366
     15 C13         3.7189    0.5783    2.4909 C.ar      1 <0>        -0.1185
     16 C14         3.8567    0.9367    3.8218 C.ar      1 <0>         0.0015
     17 C15         2.7676    0.8824    4.6761 C.ar      1 <0>        -0.1283
     18 C16         1.5372    0.4767    4.2042 C.ar      1 <0>        -0.0418
     19 Cl1         5.4009    1.4556    4.4218 Cl        1 <0>        -0.0615
     20 O2          0.1143   -5.7240   -1.3107 O.3       1 <0>        -0.2895
     21 C17         1.1865   -6.0020   -2.0692 C.2       1 <0>         0.4503
     22 O3          2.0509   -5.1715   -2.2210 O.2       1 <0>        -0.4753
     23 C18         1.3120   -7.3499   -2.7314 C.3       1 <0>        -0.0972
     24 C19         2.6154   -7.4061   -3.5307 C.3       1 <0>        -0.1072
     25 C20         2.7409   -8.7539   -4.1929 C.2       1 <0>         0.4686
     26 O4          1.8765   -9.5844   -4.0412 O.2       1 <0>        -0.5075
     27 O5          3.8130   -9.0319   -4.9513 O.3       1 <0>        -0.3433
     28 C21         3.8664  -10.3290   -5.5486 C.3       1 <0>         0.1074
     29 C22         5.1317  -10.4581   -6.3569 C.ar      1 <0>        -0.0989
     30 C23         5.1407  -10.0919   -7.6899 C.ar      1 <0>        -0.0941
     31 C24         6.3013  -10.2103   -8.4314 C.ar      1 <0>        -0.1226
     32 C25         7.4531  -10.6945   -7.8398 C.ar      1 <0>        -0.1095
     33 C26         7.4443  -11.0598   -6.5066 C.ar      1 <0>        -0.1236
     34 C27         6.2848  -10.9374   -5.7640 C.ar      1 <0>        -0.0951
     35 C28        -0.5138   -0.2625   -2.5287 C.3       1 <0>        -0.1269
     36 C29         0.8217    0.0244   -3.1653 C.2       1 <0>         0.4982
     37 O6          1.8488   -0.1492   -2.5318 O.co2     1 <0>        -0.6838
     38 O7          0.8750    0.4302   -4.3137 O.co2     1 <0>        -0.7038
     39 H1          0.6130    1.9655   -0.1098 H         1 <0>         0.0812
     40 H2         -1.0198    1.8352   -0.8064 H         1 <0>         0.0886
     41 H3         -0.8025    1.8255    0.9602 H         1 <0>         0.0567
     42 H4         -0.2252   -3.3917   -2.4410 H         1 <0>         0.1297
     43 H5          0.3917   -5.4137    1.2718 H         1 <0>         0.1335
     44 H6          0.3433   -3.2759    2.4737 H         1 <0>         0.1233
     45 H7          2.3890   -0.1142    0.9705 H         1 <0>         0.1529
     46 H8          4.5719    0.6221    1.8299 H         1 <0>         0.1460
     47 H9          2.8814    1.1628    5.7128 H         1 <0>         0.1424
     48 H10         0.6878    0.4390    4.8702 H         1 <0>         0.1452
     49 H11         1.3189   -8.1296   -1.9698 H         1 <0>         0.1167
     50 H12         0.4673   -7.5050   -3.4026 H         1 <0>         0.1177
     51 H13         2.6085   -6.6263   -4.2923 H         1 <0>         0.1221
     52 H14         3.4602   -7.2509   -2.8595 H         1 <0>         0.1196
     53 H15         3.8550  -11.0893   -4.7676 H         1 <0>         0.0780
     54 H16         3.0034  -10.4647   -6.2004 H         1 <0>         0.0786
     55 H17         4.2408   -9.7136   -8.1520 H         1 <0>         0.1254
     56 H18         6.3081   -9.9248   -9.4729 H         1 <0>         0.1260
     57 H19         8.3596  -10.7876   -8.4193 H         1 <0>         0.1242
     58 H20         8.3441  -11.4384   -6.0446 H         1 <0>         0.1253
     59 H21         6.2789  -11.2193   -4.7215 H         1 <0>         0.1244
     60 H22        -1.0329   -1.0296   -3.1033 H         1 <0>         0.0686
     61 H23        -1.1126    0.6482   -2.5143 H         1 <0>         0.0708
@<TRIPOS>BOND
     1    1    2 1
     2    1   39 1
     3    1   40 1
     4    1   41 1
     5    2   10 1
     6    2    3 2
     7    3    4 1
     8    3   35 1
     9    4    9 ar
    10    4    5 ar
    11    5    6 ar
    12    5   42 1
    13    6    7 ar
    14    6   20 1
    15    7    8 ar
    16    7   43 1
    17    8    9 ar
    18    8   44 1
    19    9   10 1
    20   10   11 am
    21   11   12 2
    22   11   13 1
    23   13   18 ar
    24   13   14 ar
    25   14   15 ar
    26   14   45 1
    27   15   16 ar
    28   15   46 1
    29   16   17 ar
    30   16   19 1
    31   17   18 ar
    32   17   47 1
    33   18   48 1
    34   20   21 1
    35   21   22 2
    36   21   23 1
    37   23   24 1
    38   23   49 1
    39   23   50 1
    40   24   25 1
    41   24   51 1
    42   24   52 1
    43   25   26 2
    44   25   27 1
    45   27   28 1
    46   28   29 1
    47   28   53 1
    48   28   54 1
    49   29   34 ar
    50   29   30 ar
    51   30   31 ar
    52   30   55 1
    53   31   32 ar
    54   31   56 1
    55   32   33 ar
    56   32   57 1
    57   33   34 ar
    58   33   58 1
    59   34   59 1
    60   35   36 1
    61   35   60 1
    62   35   61 1
    63   36   37 2
    64   36   38 1
@<TRIPOS>MOLECULE
CHEMBL198096
   30    32     0     0     0
SMALL
USER_CHARGES

@<TRIPOS>ATOM
      1 C1         -0.0184    1.5028    0.0103 C.3       1 <0>        -0.1190
      2 C2          0.0021   -0.0041    0.0020 C.2       1 <0>        -0.0199
      3 C3          0.0092   -0.8790   -1.1766 C.ar      1 <0>        -0.1314
      4 C4          0.0004   -0.6587   -2.5534 C.ar      1 <0>        -0.0874
      5 C5          0.0111   -1.7353   -3.4152 C.ar      1 <0>         0.0824
      6 C6          0.0307   -3.0315   -2.9150 C.ar      1 <0>        -0.1010
      7 C7          0.0392   -3.2604   -1.5561 C.ar      1 <0>        -0.0831
      8 C8          0.0290   -2.1895   -0.6714 C.ar      1 <0>         0.0746
      9 O1          0.0332   -2.0995    0.6744 O.3       1 <0>        -0.1313
     10 C9          0.0232   -0.8144    1.0690 C.2       1 <0>        -0.5301
     11 S1          0.0317   -0.2740    2.7460 S.o2      1 <0>         2.6380
     12 O2          0.6042   -1.3271    3.5092 O.2       1 <0>        -0.8847
     13 O3          0.5647    1.0433    2.7456 O.2       1 <0>        -0.8848
     14 C10        -1.6488   -0.1371    3.2578 C.2       1 <0>        -0.5020
     15 C11        -2.3651    1.0415    2.9916 C.2       1 <0>        -0.0344
     16 C12        -3.6662    1.1155    3.4011 C.2       1 <0>        -0.1737
     17 C13        -4.2109   -0.0025    4.0690 C.2       1 <0>         0.4846
     18 N1         -3.4396   -1.0869    4.2759 N.am      1 <0>        -0.4277
     19 N2         -2.2203   -1.1328    3.8763 N.2       1 <0>        -0.0758
     20 O4         -5.3686    0.0136    4.4554 O.2       1 <0>        -0.5021
     21 F1          0.0021   -1.5290   -4.7504 F         1 <0>        -0.1299
     22 H1          1.0042    1.8801    0.0026 H         1 <0>         0.1045
     23 H2         -0.5455    1.8639   -0.8728 H         1 <0>         0.0889
     24 H3         -0.5286    1.8543    0.9071 H         1 <0>         0.0868
     25 H4         -0.0152    0.3487   -2.9424 H         1 <0>         0.1485
     26 H5          0.0390   -3.8681   -3.5980 H         1 <0>         0.1563
     27 H6          0.0537   -4.2723   -1.1790 H         1 <0>         0.1527
     28 H7         -1.8989    1.8684    2.4765 H         1 <0>         0.1720
     29 H8         -4.2585    2.0003    3.2202 H         1 <0>         0.1784
     30 H9         -3.8158   -1.8541    4.7350 H         1 <0>         0.4507
@<TRIPOS>BOND
     1    1    2 1
     2    1   22 1
     3    1   23 1
     4    1   24 1
     5    2   10 2
     6    2    3 1
     7    3    8 ar
     8    3    4 ar
     9    4    5 ar
    10    4   25 1
    11    5    6 ar
    12    5   21 1
    13    6    7 ar
    14    6   26 1
    15    7    8 ar
    16    7   27 1
    17    8    9 1
    18    9   10 1
    19   10   11 1
    20   11   12 2
    21   11   13 2
    22   11   14 1
    23   14   15 1
    24   14   19 2
    25   15   16 2
    26   15   28 1
    27   16   17 1
    28   16   29 1
    29   17   20 2
    30   17   18 am
    31   18   19 1
    32   18   30 1
@<TRIPOS>MOLECULE
CHEMBL198096__1
   29    31     0     0     0
SMALL
USER_CHARGES

@<TRIPOS>ATOM
      1 C1         -0.0184    1.5028    0.0103 C.3       1 <0>        -0.1171
      2 C2          0.0021   -0.0041    0.0020 C.2       1 <0>        -0.0315
      3 C3          0.0092   -0.8790   -1.1766 C.ar      1 <0>        -0.1257
      4 C4          0.0004   -0.6587   -2.5534 C.ar      1 <0>        -0.0872
      5 C5          0.0111   -1.7353   -3.4152 C.ar      1 <0>         0.0735
      6 C6          0.0307   -3.0315   -2.9150 C.ar      1 <0>        -0.1110
      7 C7          0.0392   -3.2604   -1.5561 C.ar      1 <0>        -0.0830
      8 C8          0.0290   -2.1895   -0.6714 C.ar      1 <0>         0.0669
      9 O1          0.0332   -2.0995    0.6744 O.3       1 <0>        -0.1353
     10 C9          0.0232   -0.8144    1.0690 C.2       1 <0>        -0.5119
     11 S1          0.0317   -0.2740    2.7460 S.o2      1 <0>         2.6334
     12 O2          0.6042   -1.3271    3.5092 O.2       1 <0>        -0.9284
     13 O3          0.5647    1.0433    2.7456 O.2       1 <0>        -0.9055
     14 C10        -1.6488   -0.1371    3.2578 C.ar      1 <0>        -0.6255
     15 C11        -2.2915   -1.2264    3.8276 C.ar      1 <0>        -0.0281
     16 C12        -3.6141   -1.0730    4.2154 C.ar      1 <0>        -0.2341
     17 C13        -4.2147    0.1659    4.0083 C.ar      1 <0>         0.3871
     18 N1         -3.5198    1.1480    3.4563 N.ar      1 <0>        -0.3388
     19 N2         -2.2942    1.0022    3.1043 N.ar      1 <0>        -0.0938
     20 O4         -5.5071    0.3655    4.3704 O.3       1 <0>        -0.6625
     21 F1          0.0021   -1.5290   -4.7504 F         1 <0>        -0.1357
     22 H1          1.0042    1.8801    0.0026 H         1 <0>         0.0942
     23 H2         -0.5455    1.8639   -0.8728 H         1 <0>         0.0799
     24 H3         -0.5286    1.8543    0.9071 H         1 <0>         0.1045
     25 H4         -0.0152    0.3487   -2.9424 H         1 <0>         0.1456
     26 H5          0.0390   -3.8681   -3.5980 H         1 <0>         0.1510
     27 H6          0.0537   -4.2723   -1.1790 H         1 <0>         0.1488
     28 H7         -1.7772   -2.1661    3.9649 H         1 <0>         0.1380
     29 H8         -4.1612   -1.8891    4.6637 H         1 <0>         0.1322
@<TRIPOS>BOND
     1    1    2 1
     2    1   22 1
     3    1   23 1
     4    1   24 1
     5    2   10 2
     6    2    3 1
     7    3    8 ar
     8    3    4 ar
     9    4    5 ar
    10    4   25 1
    11    5    6 ar
    12    5   21 1
    13    6    7 ar
    14    6   26 1
    15    7    8 ar
    16    7   27 1
    17    8    9 1
    18    9   10 1
    19   10   11 1
    20   11   12 2
    21   11   13 2
    22   11   14 1
    23   14   15 ar
    24   14   19 ar
    25   15   16 ar
    26   15   28 1
    27   16   17 ar
    28   16   29 1
    29   17   20 1
    30   17   18 ar
    31   18   19 ar
@<TRIPOS>MOLECULE
CHEMBL44780
   39    41     0     0     0
SMALL
USER_CHARGES

@<TRIPOS>ATOM
      1 C1         -0.0176    1.3771    0.0047 C.ar      1 <0>        -0.1167
      2 C2          0.7373    1.3386   -1.1533 C.ar      1 <0>        -0.1197
      3 C3          1.9441    0.6673   -1.1706 C.ar      1 <0>        -0.1130
      4 C4          2.3996    0.0309   -0.0232 C.ar      1 <0>         0.1399
      5 C5          1.6391    0.0719    1.1384 C.ar      1 <0>        -0.0607
      6 C6          0.4330    0.7445    1.1488 C.ar      1 <0>        -0.1162
      7 N1          3.6210   -0.6501   -0.0375 N.pl3     1 <0>        -0.4527
      8 C7          4.8752    0.0978   -0.1549 C.3       1 <0>         0.0112
      9 C8          5.3779    0.4547    1.2202 C.2       1 <0>         0.4845
     10 O1          4.7469    0.1158    2.2069 O.co2     1 <0>        -0.6704
     11 O2          6.4155    1.0824    1.3461 O.co2     1 <0>        -0.6839
     12 C9          3.6442   -1.9943    0.0568 C.2       1 <0>         0.3001
     13 S1          2.2742   -2.8189    0.0668 S.2       1 <0>        -0.5072
     14 C10         4.9613   -2.7203    0.1529 C.3       1 <0>        -0.1025
     15 C11         4.7078   -4.2261    0.2488 C.3       1 <0>        -0.0237
     16 C12         6.0249   -4.9521    0.3448 C.2       1 <0>         0.1365
     17 N2          6.6838   -5.2701    1.4206 N.2       1 <0>        -0.5039
     18 C13         7.8621   -5.9259    1.3742 C.ar      1 <0>         0.1180
     19 C14         8.7056   -6.3468    2.4266 C.ar      1 <0>         0.1124
     20 C15         9.8791   -7.0094    2.1559 C.ar      1 <0>         0.1087
     21 C16        10.2707   -7.2843    0.8509 C.ar      1 <0>        -0.1519
     22 C17         9.4653   -6.8845   -0.2008 C.ar      1 <0>         0.1880
     23 C18         8.2890   -6.2207    0.0610 C.ar      1 <0>        -0.2202
     24 S2          6.9726   -5.5413   -0.9150 S.3       1 <0>         0.1532
     25 F1          9.8311   -7.1443   -1.4751 F         1 <0>        -0.1150
     26 F2         10.6686   -7.4012    3.1798 F         1 <0>        -0.1132
     27 F3          8.3566   -6.0961    3.7074 F         1 <0>        -0.1055
     28 H1         -0.9591    1.9061    0.0168 H         1 <0>         0.1208
     29 H2          0.3826    1.8336   -2.0452 H         1 <0>         0.1230
     30 H3          2.5329    0.6370   -2.0755 H         1 <0>         0.1196
     31 H4          1.9905   -0.4220    2.0323 H         1 <0>         0.1314
     32 H5         -0.1588    0.7767    2.0517 H         1 <0>         0.1246
     33 H6          5.6177   -0.5158   -0.6652 H         1 <0>         0.0881
     34 H7          4.7024    1.0096   -0.7266 H         1 <0>         0.0907
     35 H8          5.5586   -2.5082   -0.7339 H         1 <0>         0.0958
     36 H9          5.4972   -2.3848    1.0407 H         1 <0>         0.1148
     37 H10         4.1105   -4.4382    1.1355 H         1 <0>         0.1256
     38 H11         4.1719   -4.5616   -0.6391 H         1 <0>         0.1171
     39 H12        11.1968   -7.8058    0.6592 H         1 <0>         0.1726
@<TRIPOS>BOND
     1    1    6 ar
     2    1    2 ar
     3    1   28 1
     4    2    3 ar
     5    2   29 1
     6    3    4 ar
     7    3   30 1
     8    4    5 ar
     9    4    7 1
    10    5    6 ar
    11    5   31 1
    12    6   32 1
    13    7    8 1
    14    7   12 1
    15    8    9 1
    16    8   33 1
    17    8   34 1
    18    9   10 2
    19    9   11 1
    20   12   13 2
    21   12   14 1
    22   14   15 1
    23   14   35 1
    24   14   36 1
    25   15   16 1
    26   15   37 1
    27   15   38 1
    28   16   24 1
    29   16   17 2
    30   17   18 1
    31   18   23 ar
    32   18   19 ar
    33   19   20 ar
    34   19   27 1
    35   20   21 ar
    36   20   26 1
    37   21   22 ar
    38   21   39 1
    39   22   23 ar
    40   22   25 1
    41   23   24 1
@<TRIPOS>MOLECULE
CHEMBL1172665
   47    50     0     0     0
SMALL
USER_CHARGES

@<TRIPOS>ATOM
      1 C1          0.1180    3.3315    2.9152 C.3       1 <0>         0.0177
      2 O1          0.1616    2.0600    2.2646 O.3       1 <0>        -0.3004
      3 C2          0.7480    1.0386    2.9441 C.ar      1 <0>         0.1792
      4 C3          1.2646    1.2587    4.2136 C.ar      1 <0>        -0.1938
      5 C4          1.8606    0.2261    4.9064 C.ar      1 <0>        -0.0394
      6 C5          1.9437   -1.0431    4.3289 C.ar      1 <0>        -0.0275
      7 C6          1.4221   -1.2598    3.0515 C.ar      1 <0>        -0.0476
      8 C7          0.8232   -0.2223    2.3685 C.ar      1 <0>        -0.1338
      9 N1          2.5348   -2.0709    5.0126 N.pl3     1 <0>        -0.4926
     10 C8          1.9611   -3.2537    5.0467 C.2       1 <0>         0.5048
     11 C9          2.6493   -4.4200    5.6349 C.2       1 <0>        -0.2824
     12 C10         1.8565   -5.4481    6.1253 C.2       1 <0>         0.1730
     13 C11         0.4490   -5.3263    6.0009 C.ar      1 <0>        -0.1912
     14 C12        -0.4016   -6.2319    6.6529 C.ar      1 <0>         0.0027
     15 C13        -1.7539   -6.0809    6.5607 C.ar      1 <0>        -0.1532
     16 C14        -2.2998   -5.0368    5.8158 C.ar      1 <0>         0.2237
     17 C15        -1.4751   -4.1432    5.1488 C.ar      1 <0>        -0.1572
     18 C16        -0.1000   -4.2866    5.2257 C.ar      1 <0>         0.1595
     19 O2          0.7124   -3.4439    4.5470 O.3       1 <0>        -0.1965
     20 O3         -3.6471   -4.8935    5.7430 O.3       1 <0>        -0.4789
     21 C17         4.1175   -4.4897    5.6983 C.2       1 <0>         0.5807
     22 O4          4.6579   -5.3985    6.2998 O.2       1 <0>        -0.4709
     23 N2          4.8638   -3.5466    5.0899 N.am      1 <0>        -0.6585
     24 C18         6.2531   -3.6492    5.0922 C.ar      1 <0>         0.3260
     25 C19         6.8831   -4.4525    6.0365 C.ar      1 <0>        -0.1789
     26 C20         8.2634   -4.5457    6.0272 C.ar      1 <0>        -0.0530
     27 C21         8.9693   -3.8293    5.0699 C.ar      1 <0>        -0.1753
     28 C22         8.2785   -3.0510    4.1625 C.ar      1 <0>         0.1291
     29 N3          6.9611   -2.9853    4.1922 N.ar      1 <0>        -0.5096
     30 H1          1.1334    3.6659    3.1277 H         1 <0>         0.0660
     31 H2         -0.3746    4.0552    2.2659 H         1 <0>         0.1146
     32 H3         -0.4382    3.2431    3.8485 H         1 <0>         0.0649
     33 H4          1.1999    2.2404    4.6592 H         1 <0>         0.1532
     34 H5          2.2629    0.3984    5.8937 H         1 <0>         0.1467
     35 H6          1.4844   -2.2394    2.6009 H         1 <0>         0.1436
     36 H7          0.4157   -0.3900    1.3824 H         1 <0>         0.1557
     37 H8          2.2993   -6.3174    6.5886 H         1 <0>         0.1977
     38 H9          0.0138   -7.0473    7.2264 H         1 <0>         0.1685
     39 H10        -2.4067   -6.7755    7.0684 H         1 <0>         0.1642
     40 H11        -1.9041   -3.3381    4.5709 H         1 <0>         0.1671
     41 H12        -4.0211   -4.3332    6.4368 H         1 <0>         0.4183
     42 H13         4.4336   -2.7965    4.6505 H         1 <0>         0.3985
     43 H14         6.3027   -4.9961    6.7674 H         1 <0>         0.1738
     44 H15         8.7802   -5.1615    6.7484 H         1 <0>         0.1464
     45 H16        10.0475   -3.8800    5.0357 H         1 <0>         0.1457
     46 H17         8.8234   -2.4921    3.4161 H         1 <0>         0.1685
     47 H18         3.3770   -1.9269    5.4719 H         1 <0>         0.4508
@<TRIPOS>BOND
     1    1    2 1
     2    1   30 1
     3    1   31 1
     4    1   32 1
     5    2    3 1
     6    3    8 ar
     7    3    4 ar
     8    4    5 ar
     9    4   33 1
    10    5    6 ar
    11    5   34 1
    12    6    7 ar
    13    6    9 1
    14    7    8 ar
    15    7   35 1
    16    8   36 1
    17    9   10 2
    18    9   47 1
    19   10   19 1
    20   10   11 1
    21   11   12 2
    22   11   21 1
    23   12   13 1
    24   12   37 1
    25   13   18 ar
    26   13   14 ar
    27   14   15 ar
    28   14   38 1
    29   15   16 ar
    30   15   39 1
    31   16   17 ar
    32   16   20 1
    33   17   18 ar
    34   17   40 1
    35   18   19 1
    36   20   41 1
    37   21   22 2
    38   21   23 am
    39   23   24 1
    40   23   42 1
    41   24   29 ar
    42   24   25 ar
    43   25   26 ar
    44   25   43 1
    45   26   27 ar
    46   26   44 1
    47   27   28 ar
    48   27   45 1
    49   28   29 ar
    50   28   46 1
@<TRIPOS>MOLECULE
CHEMBL73330
   26    28     0     0     0
SMALL
USER_CHARGES

@<TRIPOS>ATOM
      1 C1         -0.0164    1.3570    0.0095 C.ar      1 <0>        -0.1164
      2 C2          1.1559    2.1003    0.0023 C.ar      1 <0>        -0.0613
      3 C3          2.3751    1.4492   -0.0129 C.ar      1 <0>        -0.0778
      4 C4          2.4044    0.0758   -0.0205 C.ar      1 <0>        -0.1466
      5 C5          1.2262   -0.7047   -0.0135 C.ar      1 <0>         0.0440
      6 C6          0.0021   -0.0041    0.0020 C.ar      1 <0>        -0.0301
      7 N1          1.4635   -2.0326   -0.0233 N.2       1 <0>        -0.3741
      8 C7          2.6693   -2.5212   -0.0378 C.2       1 <0>        -0.5013
      9 S1          3.6694   -1.1675   -0.0399 S.3       1 <0>         0.2273
     10 S2          3.1473   -4.2171   -0.0516 S.o2      1 <0>         2.6442
     11 O1          4.4615   -4.2730    0.4860 O.2       1 <0>        -0.8827
     12 O2          2.0644   -4.9488    0.5061 O.2       1 <0>        -0.8801
     13 C8          3.2721   -4.7095   -1.7387 C.2       1 <0>        -0.4971
     14 C9          2.1245   -5.1362   -2.4274 C.2       1 <0>        -0.0267
     15 C10         2.2550   -5.5108   -3.7345 C.2       1 <0>        -0.1772
     16 C11         3.5409   -5.4452   -4.3131 C.2       1 <0>         0.4854
     17 N2          4.5787   -5.0215   -3.5666 N.am      1 <0>        -0.4275
     18 N3          4.4281   -4.6702   -2.3409 N.2       1 <0>        -0.0804
     19 O3          3.7106   -5.7693   -5.4776 O.2       1 <0>        -0.5033
     20 H1         -0.9661    1.8710    0.0259 H         1 <0>         0.1438
     21 H2          1.1157    3.1795    0.0081 H         1 <0>         0.1475
     22 H3          3.2953    2.0145   -0.0190 H         1 <0>         0.1436
     23 H4         -0.9285   -0.5522    0.0083 H         1 <0>         0.1434
     24 H5          1.1634   -5.1676   -1.9357 H         1 <0>         0.1750
     25 H6          1.4026   -5.8466   -4.3063 H         1 <0>         0.1781
     26 H7          5.4615   -4.9772   -3.9661 H         1 <0>         0.4503
@<TRIPOS>BOND
     1    1    6 ar
     2    1    2 ar
     3    1   20 1
     4    2    3 ar
     5    2   21 1
     6    3    4 ar
     7    3   22 1
     8    4    9 1
     9    4    5 ar
    10    5    6 ar
    11    5    7 1
    12    6   23 1
    13    7    8 2
    14    8    9 1
    15    8   10 1
    16   10   11 2
    17   10   12 2
    18   10   13 1
    19   13   14 1
    20   13   18 2
    21   14   15 2
    22   14   24 1
    23   15   16 1
    24   15   25 1
    25   16   19 2
    26   16   17 am
    27   17   18 1
    28   17   26 1
@<TRIPOS>MOLECULE
CHEMBL73330__1
   26    28     0     0     0
SMALL
USER_CHARGES

@<TRIPOS>ATOM
      1 C1         -0.0164    1.3570    0.0095 C.ar      1 <0>        -0.0675
      2 C2          1.1559    2.1003    0.0023 C.ar      1 <0>        -0.0476
      3 C3          2.3751    1.4492   -0.0129 C.ar      1 <0>        -0.0467
      4 C4          2.4044    0.0758   -0.0205 C.ar      1 <0>        -0.1727
      5 C5          1.2262   -0.7047   -0.0135 C.ar      1 <0>         0.0551
      6 C6          0.0021   -0.0041    0.0020 C.ar      1 <0>        -0.0613
      7 N1          1.4635   -2.0326   -0.0233 N.pl3     1 <0>        -0.3996
      8 C7          2.6693   -2.5212   -0.0374 C.2       1 <0>        -0.4899
      9 S1          3.6694   -1.1675   -0.0399 S.3       1 <0>         0.5409
     10 S2          3.1473   -4.2171   -0.0505 S.o2      1 <0>         2.5866
     11 O1          4.4614   -4.2728    0.4874 O.2       1 <0>        -0.8789
     12 O2          2.0643   -4.9487    0.5071 O.2       1 <0>        -0.8745
     13 C8          3.2725   -4.7100   -1.7375 C.ar      1 <0>        -0.6344
     14 C9          4.4778   -4.5782   -2.4114 C.ar      1 <0>        -0.0397
     15 C10         4.5299   -4.9790   -3.7380 C.ar      1 <0>        -0.2155
     16 C11         3.3681   -5.4890   -4.3111 C.ar      1 <0>         0.3890
     17 N2          2.2632   -5.5767   -3.5875 N.ar      1 <0>        -0.3193
     18 N3          2.2219   -5.2093   -2.3583 N.ar      1 <0>        -0.0887
     19 O3          3.3683   -5.8942   -5.6061 O.3       1 <0>        -0.6268
     20 H1         -0.9661    1.8710    0.0259 H         1 <0>         0.1635
     21 H2          1.1157    3.1795    0.0081 H         1 <0>         0.1662
     22 H3          3.2953    2.0145   -0.0190 H         1 <0>         0.1666
     23 H4         -0.9285   -0.5522    0.0083 H         1 <0>         0.1610
     24 H5          5.3497   -4.1751   -1.9176 H         1 <0>         0.1426
     25 H6          5.4431   -4.8976   -4.3088 H         1 <0>         0.1420
     26 H7          0.7101   -2.6436   -0.0194 H         1 <0>         0.4496
@<TRIPOS>BOND
     1    1    6 ar
     2    1    2 ar
     3    1   20 1
     4    2    3 ar
     5    2   21 1
     6    3    4 ar
     7    3   22 1
     8    4    9 1
     9    4    5 ar
    10    5    6 ar
    11    5    7 1
    12    6   23 1
    13    7    8 2
    14    7   26 1
    15    8    9 1
    16    8   10 1
    17   10   11 2
    18   10   12 2
    19   10   13 1
    20   13   14 ar
    21   13   18 ar
    22   14   15 ar
    23   14   24 1
    24   15   16 ar
    25   15   25 1
    26   16   19 1
    27   16   17 ar
    28   17   18 ar
@<TRIPOS>MOLECULE
CHEMBL73330__2
   27    29     0     0     0
SMALL
USER_CHARGES

@<TRIPOS>ATOM
      1 C1         -0.0164    1.3570    0.0095 C.ar      1 <0>        -0.0604
      2 C2          1.1559    2.1003    0.0023 C.ar      1 <0>        -0.0330
      3 C3          2.3751    1.4492   -0.0129 C.ar      1 <0>        -0.0482
      4 C4          2.4044    0.0758   -0.0205 C.ar      1 <0>        -0.1689
      5 C5          1.2262   -0.7047   -0.0135 C.ar      1 <0>         0.0577
      6 C6          0.0021   -0.0041    0.0020 C.ar      1 <0>        -0.0612
      7 N1          1.4635   -2.0326   -0.0233 N.pl3     1 <0>        -0.3944
      8 C7          2.6693   -2.5212   -0.0374 C.2       1 <0>        -0.5412
      9 S1          3.6694   -1.1675   -0.0399 S.3       1 <0>         0.5807
     10 S2          3.1473   -4.2171   -0.0505 S.o2      1 <0>         2.6151
     11 O1          4.4614   -4.2728    0.4874 O.2       1 <0>        -0.8363
     12 O2          2.0643   -4.9487    0.5071 O.2       1 <0>        -0.8530
     13 C8          3.2725   -4.7100   -1.7375 C.2       1 <0>        -0.5161
     14 C9          2.1250   -5.1369   -2.4263 C.2       1 <0>        -0.0514
     15 C10         2.2559   -5.5119   -3.7333 C.2       1 <0>        -0.1527
     16 C11         3.5420   -5.4464   -4.3116 C.2       1 <0>         0.4821
     17 N2          4.5795   -5.0226   -3.5650 N.am      1 <0>        -0.4158
     18 N3          4.4287   -4.6709   -2.3394 N.2       1 <0>        -0.0654
     19 O3          3.7119   -5.7709   -5.4760 O.2       1 <0>        -0.4754
     20 H1         -0.9661    1.8710    0.0259 H         1 <0>         0.1690
     21 H2          1.1157    3.1795    0.0081 H         1 <0>         0.1721
     22 H3          3.2953    2.0145   -0.0190 H         1 <0>         0.1714
     23 H4         -0.9285   -0.5522    0.0083 H         1 <0>         0.1639
     24 H5          1.1638   -5.1681   -1.9349 H         1 <0>         0.1729
     25 H6          1.4036   -5.8478   -4.3052 H         1 <0>         0.1847
     26 H7          5.4624   -4.9783   -3.9643 H         1 <0>         0.4570
     27 H8          0.7101   -2.6436   -0.0194 H         1 <0>         0.4470
@<TRIPOS>BOND
     1    1    6 ar
     2    1    2 ar
     3    1   20 1
     4    2    3 ar
     5    2   21 1
     6    3    4 ar
     7    3   22 1
     8    4    9 1
     9    4    5 ar
    10    5    6 ar
    11    5    7 1
    12    6   23 1
    13    7    8 2
    14    7   27 1
    15    8    9 1
    16    8   10 1
    17   10   11 2
    18   10   12 2
    19   10   13 1
    20   13   14 1
    21   13   18 2
    22   14   15 2
    23   14   24 1
    24   15   16 1
    25   15   25 1
    26   16   19 2
    27   16   17 am
    28   17   18 1
    29   17   26 1
@<TRIPOS>MOLECULE
CHEMBL73330__3
   25    27     0     0     0
SMALL
USER_CHARGES

@<TRIPOS>ATOM
      1 C1         -0.0164    1.3570    0.0095 C.ar      1 <0>        -0.1197
      2 C2          1.1559    2.1003    0.0023 C.ar      1 <0>        -0.0771
      3 C3          2.3751    1.4492   -0.0129 C.ar      1 <0>        -0.0743
      4 C4          2.4044    0.0758   -0.0205 C.ar      1 <0>        -0.1556
      5 C5          1.2262   -0.7047   -0.0135 C.ar      1 <0>         0.0517
      6 C6          0.0021   -0.0041    0.0020 C.ar      1 <0>        -0.0344
      7 N1          1.4635   -2.0326   -0.0233 N.2       1 <0>        -0.3817
      8 C7          2.6693   -2.5212   -0.0378 C.2       1 <0>        -0.4611
      9 S1          3.6694   -1.1675   -0.0399 S.3       1 <0>         0.1988
     10 S2          3.1473   -4.2171   -0.0516 S.o2      1 <0>         2.6340
     11 O1          4.4615   -4.2730    0.4860 O.2       1 <0>        -0.9247
     12 O2          2.0644   -4.9488    0.5061 O.2       1 <0>        -0.8992
     13 C8          3.2721   -4.7095   -1.7387 C.ar      1 <0>        -0.6218
     14 C9          4.4772   -4.5775   -2.4128 C.ar      1 <0>        -0.0324
     15 C10         4.5290   -4.9779   -3.7396 C.ar      1 <0>        -0.2326
     16 C11         3.3671   -5.4878   -4.3125 C.ar      1 <0>         0.3866
     17 N2          2.2623   -5.5757   -3.5887 N.ar      1 <0>        -0.3385
     18 N3          2.2214   -5.2087   -2.3594 N.ar      1 <0>        -0.0858
     19 O3          3.3670   -5.8925   -5.6077 O.3       1 <0>        -0.6628
     20 H1         -0.9661    1.8710    0.0259 H         1 <0>         0.1385
     21 H2          1.1157    3.1795    0.0081 H         1 <0>         0.1417
     22 H3          3.2953    2.0145   -0.0190 H         1 <0>         0.1388
     23 H4         -0.9285   -0.5522    0.0083 H         1 <0>         0.1409
     24 H5          5.3492   -4.1746   -1.9192 H         1 <0>         0.1380
     25 H6          5.4420   -4.8964   -4.3106 H         1 <0>         0.1329
@<TRIPOS>BOND
     1    1    6 ar
     2    1    2 ar
     3    1   20 1
     4    2    3 ar
     5    2   21 1
     6    3    4 ar
     7    3   22 1
     8    4    9 1
     9    4    5 ar
    10    5    6 ar
    11    5    7 1
    12    6   23 1
    13    7    8 2
    14    8    9 1
    15    8   10 1
    16   10   11 2
    17   10   12 2
    18   10   13 1
    19   13   14 ar
    20   13   18 ar
    21   14   15 ar
    22   14   24 1
    23   15   16 ar
    24   15   25 1
    25   16   19 1
    26   16   17 ar
    27   17   18 ar
@<TRIPOS>MOLECULE
CHEMBL370478
   49    53     0     0     0
SMALL
USER_CHARGES

@<TRIPOS>ATOM
      1 C1         -0.0169    1.3896   -0.0049 C.ar      1 <0>        -0.1730
      2 C2          1.1586    2.1066   -0.0125 C.ar      1 <0>        -0.0647
      3 C3          2.3796    1.4409   -0.0137 C.ar      1 <0>         0.0743
      4 C4          2.4032    0.0346   -0.0067 C.ar      1 <0>        -0.0464
      5 C5          1.2059   -0.6837    0.0014 C.ar      1 <0>        -0.1678
      6 C6          0.0021   -0.0041    0.0020 C.ar      1 <0>         0.1893
      7 N1         -1.2018   -0.7179    0.0101 N.pl3     1 <0>        -0.6386
      8 C7         -1.2132   -2.1852   -0.1014 C.3       1 <0>         0.0918
      9 C8         -2.0817   -2.7493    1.0289 C.3       1 <0>         0.0451
     10 O1         -3.3559   -2.1013    1.0116 O.3       1 <0>        -0.3836
     11 C9         -3.2996   -0.6928    1.2499 C.3       1 <0>         0.0455
     12 C10        -2.4932   -0.0239    0.1366 C.3       1 <0>         0.0920
     13 C11         3.8176   -0.3472   -0.0101 C.2       1 <0>        -0.2312
     14 C12         4.5317    0.7895   -0.0185 C.2       1 <0>         0.1176
     15 N2          3.6911    1.8688   -0.0208 N.pl3     1 <0>        -0.4349
     16 C13         4.1196    3.2697   -0.0299 C.3       1 <0>         0.0312
     17 C14         4.1533    3.7939    1.3826 C.2       1 <0>         0.4815
     18 O2          3.8477    3.0648    2.3108 O.co2     1 <0>        -0.6705
     19 O3          4.4862    4.9470    1.5971 O.co2     1 <0>        -0.6917
     20 C15         4.3669   -1.7505   -0.0047 C.3       1 <0>         0.0479
     21 C16         4.4292   -2.2710   -1.4175 C.2       1 <0>         0.1532
     22 N3          5.4174   -2.1788   -2.2587 N.2       1 <0>        -0.5152
     23 C17         5.3501   -2.6903   -3.5055 C.ar      1 <0>         0.1223
     24 C18         6.3126   -2.6833   -4.5397 C.ar      1 <0>         0.1060
     25 C19         6.0364   -3.2694   -5.7520 C.ar      1 <0>         0.1088
     26 C20         4.8133   -3.8821   -5.9978 C.ar      1 <0>        -0.1576
     27 C21         3.8507   -3.9050   -5.0041 C.ar      1 <0>         0.1901
     28 C22         4.1187   -3.3207   -3.7877 C.ar      1 <0>        -0.2263
     29 S1          3.2389   -3.1096   -2.2617 S.3       1 <0>         0.1576
     30 F1          2.6568   -4.4969   -5.2265 F         1 <0>        -0.1154
     31 F2          6.9733   -3.2490   -6.7251 F         1 <0>        -0.1146
     32 F3          7.5122   -2.0962   -4.3359 F         1 <0>        -0.1086
     33 H1         -0.9622    1.9119    0.0002 H         1 <0>         0.1203
     34 H2          1.1323    3.1862   -0.0178 H         1 <0>         0.1168
     35 H3          1.2203   -1.7636    0.0065 H         1 <0>         0.1133
     36 H4         -1.6303   -2.4768   -1.0653 H         1 <0>         0.0639
     37 H5         -0.1969   -2.5682   -0.0096 H         1 <0>         0.0909
     38 H6         -2.2163   -3.8212    0.8842 H         1 <0>         0.1002
     39 H7         -1.5944   -2.5688    1.9871 H         1 <0>         0.0556
     40 H8         -4.3104   -0.2853    1.2643 H         1 <0>         0.1006
     41 H9         -2.8168   -0.5049    2.2089 H         1 <0>         0.0555
     42 H10        -2.3241    1.0237    0.3859 H         1 <0>         0.0910
     43 H11        -3.0413   -0.0942   -0.8029 H         1 <0>         0.0630
     44 H12         5.6103    0.8439   -0.0232 H         1 <0>         0.1612
     45 H13         5.1149    3.3423   -0.4682 H         1 <0>         0.0874
     46 H14         3.4188    3.8602   -0.6200 H         1 <0>         0.0833
     47 H15         5.3683   -1.7470    0.4258 H         1 <0>         0.1098
     48 H16         3.7177   -2.3925    0.5908 H         1 <0>         0.1023
     49 H17         4.6156   -4.3368   -6.9573 H         1 <0>         0.1711
@<TRIPOS>BOND
     1    1    6 ar
     2    1    2 ar
     3    1   33 1
     4    2    3 ar
     5    2   34 1
     6    3   15 1
     7    3    4 ar
     8    4    5 ar
     9    4   13 1
    10    5    6 ar
    11    5   35 1
    12    6    7 1
    13    7   12 1
    14    7    8 1
    15    8    9 1
    16    8   36 1
    17    8   37 1
    18    9   10 1
    19    9   38 1
    20    9   39 1
    21   10   11 1
    22   11   12 1
    23   11   40 1
    24   11   41 1
    25   12   42 1
    26   12   43 1
    27   13   14 2
    28   13   20 1
    29   14   15 1
    30   14   44 1
    31   15   16 1
    32   16   17 1
    33   16   45 1
    34   16   46 1
    35   17   18 2
    36   17   19 1
    37   20   21 1
    38   20   47 1
    39   20   48 1
    40   21   29 1
    41   21   22 2
    42   22   23 1
    43   23   28 ar
    44   23   24 ar
    45   24   25 ar
    46   24   32 1
    47   25   26 ar
    48   25   31 1
    49   26   27 ar
    50   26   49 1
    51   27   28 ar
    52   27   30 1
    53   28   29 1
@<TRIPOS>MOLECULE
CHEMBL311679
   32    35     0     0     0
SMALL
USER_CHARGES

@<TRIPOS>ATOM
      1 C1         -0.0166    1.3717    0.0096 C.ar      1 <0>        -0.0884
      2 C2          1.1712    2.0830    0.0021 C.ar      1 <0>        -0.1283
      3 C3          2.3635    1.3997   -0.0237 C.ar      1 <0>        -0.0720
      4 C4          2.3875   -0.0067   -0.0342 C.ar      1 <0>        -0.1504
      5 C5          1.2019   -0.7209   -0.0080 C.ar      1 <0>        -0.0280
      6 C6          0.0021   -0.0041    0.0020 C.ar      1 <0>        -0.1361
      7 C7          1.0263   -2.2164    0.0414 C.3       1 <0>        -0.0787
      8 C8          2.2727   -2.9979    0.3582 C.3       1 <0>        -0.0925
      9 C9          3.2950   -2.9450   -0.7352 C.ar      1 <0>        -0.0395
     10 C10         3.9940   -1.7848   -0.9716 C.ar      1 <0>        -0.1099
     11 C11         4.9397   -1.7028   -1.9938 C.ar      1 <0>        -0.0820
     12 C12         5.1800   -2.8226   -2.7704 C.ar      1 <0>        -0.0660
     13 C13         4.4906   -3.9909   -2.5255 C.ar      1 <0>        -0.1449
     14 C14         3.5412   -4.0745   -1.5131 C.ar      1 <0>         0.0945
     15 O1          2.9953   -5.3123   -1.4656 O.3       1 <0>        -0.2698
     16 C15         3.4977   -6.1443   -2.3859 C.2       1 <0>         0.4969
     17 O2          3.1901   -7.3003   -2.5562 O.2       1 <0>        -0.4228
     18 C16         4.5265   -5.3580   -3.1732 C.3       1 <0>        -0.1474
     19 C17         3.7180   -0.6358   -0.0890 C.2       1 <0>         0.4497
     20 O3          4.6104   -0.1973    0.6101 O.2       1 <0>        -0.4280
     21 H1         -0.9597    1.8978    0.0259 H         1 <0>         0.1295
     22 H2          1.1609    3.1628    0.0159 H         1 <0>         0.1328
     23 H3          3.2932    1.9492   -0.0357 H         1 <0>         0.1303
     24 H4         -0.9336   -0.5434    0.0042 H         1 <0>         0.1287
     25 H5          0.2749   -2.4487    0.7959 H         1 <0>         0.0946
     26 H6          0.6493   -2.5495   -0.9256 H         1 <0>         0.0876
     27 H7          2.7147   -2.5976    1.2706 H         1 <0>         0.0807
     28 H8          1.9990   -4.0386    0.5318 H         1 <0>         0.0943
     29 H9          5.4742   -0.7821   -2.1760 H         1 <0>         0.1449
     30 H10         5.9069   -2.7813   -3.5680 H         1 <0>         0.1437
     31 H11         4.2401   -5.2936   -4.2229 H         1 <0>         0.1382
     32 H12         5.5147   -5.8064   -3.0700 H         1 <0>         0.1382
@<TRIPOS>BOND
     1    1    6 ar
     2    1    2 ar
     3    1   21 1
     4    2    3 ar
     5    2   22 1
     6    3    4 ar
     7    3   23 1
     8    4   19 1
     9    4    5 ar
    10    5    6 ar
    11    5    7 1
    12    6   24 1
    13    7    8 1
    14    7   25 1
    15    7   26 1
    16    8    9 1
    17    8   27 1
    18    8   28 1
    19    9   14 ar
    20    9   10 ar
    21   10   11 ar
    22   10   19 1
    23   11   12 ar
    24   11   29 1
    25   12   13 ar
    26   12   30 1
    27   13   18 1
    28   13   14 ar
    29   14   15 1
    30   15   16 1
    31   16   17 2
    32   16   18 1
    33   18   31 1
    34   18   32 1
    35   19   20 2
@<TRIPOS>MOLECULE
CHEMBL486917
   27    28     0     0     0
SMALL
USER_CHARGES

@<TRIPOS>ATOM
      1 C1          1.1896   -0.6431   -0.4115 C.ar      1 <0>        -0.0764
      2 C2          2.3635    0.0732   -0.4735 C.ar      1 <0>        -0.1411
      3 C3          2.3669    1.4333   -0.1858 C.ar      1 <0>         0.1201
      4 C4          1.1863    2.0775    0.1659 C.ar      1 <0>        -0.1499
      5 C5          0.0067    1.3710    0.2311 C.ar      1 <0>        -0.0689
      6 C6         -0.0026    0.0007   -0.0578 C.ar      1 <0>        -0.0874
      7 C7         -1.2579   -0.7582    0.0100 C.2       1 <0>         0.0387
      8 C8         -1.2399   -2.1108   -0.0999 C.2       1 <0>        -0.1779
      9 C9         -2.3641   -3.0602   -0.2207 C.2       1 <0>         0.5599
     10 O1         -3.5210   -2.6828   -0.2347 O.2       1 <0>        -0.4717
     11 N1         -2.0503   -4.3415   -0.3134 N.am      1 <0>        -0.5440
     12 C10        -0.7669   -4.7556   -0.2974 C.2       1 <0>         0.5485
     13 O2         -0.3386   -5.8914   -0.3740 O.2       1 <0>        -0.4227
     14 S1          0.1517   -3.2319   -0.1460 S.3       1 <0>        -0.0713
     15 C11        -3.1211   -5.3338   -0.4356 C.3       1 <0>         0.0207
     16 C12        -3.4339   -5.5583   -1.8926 C.2       1 <0>         0.4912
     17 O3         -2.8194   -4.9463   -2.7494 O.co2     1 <0>        -0.6826
     18 O4         -4.3016   -6.3521   -2.2145 O.co2     1 <0>        -0.6852
     19 O5          3.5276    2.1348   -0.2480 O.3       1 <0>        -0.4991
     20 H1          1.1873   -1.6988   -0.6396 H         1 <0>         0.1431
     21 H2          3.2837   -0.4224   -0.7458 H         1 <0>         0.1356
     22 H3          1.1947    3.1342    0.3888 H         1 <0>         0.1338
     23 H4         -0.9099    1.8724    0.5047 H         1 <0>         0.1374
     24 H5         -2.1955   -0.2400    0.1473 H         1 <0>         0.1621
     25 H6         -2.8000   -6.2724    0.0159 H         1 <0>         0.0949
     26 H7         -4.0128   -4.9710    0.0757 H         1 <0>         0.0990
     27 H8          3.7092    2.5185   -1.1169 H         1 <0>         0.3931
@<TRIPOS>BOND
     1    1    6 ar
     2    1    2 ar
     3    1   20 1
     4    2    3 ar
     5    2   21 1
     6    3    4 ar
     7    3   19 1
     8    4    5 ar
     9    4   22 1
    10    5    6 ar
    11    5   23 1
    12    6    7 1
    13    7    8 2
    14    7   24 1
    15    8   14 1
    16    8    9 1
    17    9   10 2
    18    9   11 am
    19   11   12 am
    20   11   15 1
    21   12   13 2
    22   12   14 1
    23   15   16 1
    24   15   25 1
    25   15   26 1
    26   16   17 2
    27   16   18 1
    28   19   27 1
@<TRIPOS>MOLECULE
CHEMBL73560
   37    39     0     0     0
SMALL
USER_CHARGES

@<TRIPOS>ATOM
      1 C1         -0.0184    1.5028    0.0103 C.3       1 <0>        -0.1213
      2 C2          0.0021   -0.0041    0.0020 C.2       1 <0>        -0.0260
      3 C3         -1.1611   -0.7202    0.0036 C.2       1 <0>        -0.1953
      4 C4         -1.0673   -2.1287   -0.0045 C.2       1 <0>         0.4755
      5 O1         -2.0773   -2.8141   -0.0038 O.2       1 <0>        -0.5515
      6 N1          0.1483   -2.7082   -0.0133 N.am      1 <0>        -0.3550
      7 N2          1.2269   -2.0118   -0.0141 N.2       1 <0>        -0.1199
      8 C5          1.2177   -0.7077   -0.0134 C.2       1 <0>         0.0691
      9 C6          2.5206    0.0497   -0.0223 C.3       1 <0>        -0.1308
     10 C7          3.6688   -0.9262   -0.0384 C.2       1 <0>         0.4876
     11 O2          3.4495   -2.1255   -0.0422 O.co2     1 <0>        -0.6500
     12 O3          4.8170   -0.5164   -0.0475 O.co2     1 <0>        -0.7091
     13 C8          0.2424   -4.1702   -0.0216 C.3       1 <0>         0.2058
     14 C9          0.2680   -4.6638   -1.4453 C.2       1 <0>         0.1008
     15 N3          1.3078   -4.8645   -2.2015 N.2       1 <0>        -0.4732
     16 C10         1.1986   -5.3127   -3.4691 C.ar      1 <0>         0.1449
     17 C11         2.2041   -5.5840   -4.4218 C.ar      1 <0>        -0.1017
     18 C12         1.8725   -6.0400   -5.6736 C.ar      1 <0>         0.1388
     19 C13         0.5482   -6.2480   -6.0414 C.ar      1 <0>        -0.1737
     20 C14        -0.4604   -5.9912   -5.1295 C.ar      1 <0>         0.1907
     21 C15        -0.1364   -5.5340   -3.8732 C.ar      1 <0>        -0.2424
     22 S1         -1.0414   -5.0872   -2.4143 S.3       1 <0>         0.1606
     23 F1         -1.7529   -6.1875   -5.4703 F         1 <0>        -0.1212
     24 F2          2.8541   -6.2916   -6.5671 F         1 <0>        -0.1247
     25 C16        -2.5005   -0.0295    0.0141 C.3       1 <0>        -0.0845
     26 H1          1.0042    1.8801    0.0026 H         1 <0>         0.0822
     27 H2         -0.5455    1.8639   -0.8728 H         1 <0>         0.0784
     28 H3         -0.5286    1.8543    0.9071 H         1 <0>         0.0801
     29 H4          2.5678    0.6809   -0.9096 H         1 <0>         0.0803
     30 H5          2.5851    0.6720    0.8702 H         1 <0>         0.0816
     31 H6          1.1562   -4.4784    0.4863 H         1 <0>         0.1432
     32 H7         -0.6200   -4.5927    0.4940 H         1 <0>         0.1308
     33 H8          3.2418   -5.4313   -4.1644 H         1 <0>         0.1580
     34 H9          0.3083   -6.6070   -7.0314 H         1 <0>         0.1619
     35 H10        -2.8284    0.1430   -1.0110 H         1 <0>         0.0683
     36 H11        -3.2288   -0.6568    0.5279 H         1 <0>         0.0729
     37 H12        -2.4129    0.9251    0.5330 H         1 <0>         0.0691
@<TRIPOS>BOND
     1    1    2 1
     2    1   26 1
     3    1   27 1
     4    1   28 1
     5    2    8 1
     6    2    3 2
     7    3    4 1
     8    3   25 1
     9    4    5 2
    10    4    6 am
    11    6    7 1
    12    6   13 1
    13    7    8 2
    14    8    9 1
    15    9   10 1
    16    9   29 1
    17    9   30 1
    18   10   11 2
    19   10   12 1
    20   13   14 1
    21   13   31 1
    22   13   32 1
    23   14   22 1
    24   14   15 2
    25   15   16 1
    26   16   21 ar
    27   16   17 ar
    28   17   18 ar
    29   17   33 1
    30   18   19 ar
    31   18   24 1
    32   19   20 ar
    33   19   34 1
    34   20   21 ar
    35   20   23 1
    36   21   22 1
    37   25   35 1
    38   25   36 1
    39   25   37 1
@<TRIPOS>MOLECULE
CHEMBL71966
   40    42     0     0     0
SMALL
USER_CHARGES

@<TRIPOS>ATOM
      1 C1         -0.0184    1.5028    0.0103 C.3       1 <0>        -0.1214
      2 C2          0.0021   -0.0041    0.0020 C.2       1 <0>        -0.0267
      3 C3         -1.1611   -0.7202    0.0036 C.2       1 <0>        -0.1922
      4 C4         -1.0673   -2.1287   -0.0045 C.2       1 <0>         0.4766
      5 O1         -2.0773   -2.8141   -0.0038 O.2       1 <0>        -0.5446
      6 N1          0.1483   -2.7082   -0.0133 N.am      1 <0>        -0.3602
      7 N2          1.2269   -2.0118   -0.0141 N.2       1 <0>        -0.1230
      8 C5          1.2177   -0.7077   -0.0134 C.2       1 <0>         0.0739
      9 C6          2.5206    0.0497   -0.0223 C.3       1 <0>        -0.1314
     10 C7          3.6688   -0.9262   -0.0384 C.2       1 <0>         0.4887
     11 O2          3.4495   -2.1255   -0.0422 O.co2     1 <0>        -0.6503
     12 O3          4.8170   -0.5164   -0.0475 O.co2     1 <0>        -0.7085
     13 C8          0.2424   -4.1702   -0.0216 C.3       1 <0>         0.2105
     14 C9          0.2680   -4.6638   -1.4453 C.2       1 <0>         0.2814
     15 N3          1.3360   -4.8501   -2.1671 N.2       1 <0>        -0.4894
     16 C10         0.9940   -5.2967   -3.3890 C.2       1 <0>         0.2822
     17 N4         -0.3112   -5.3969   -3.4479 N.2       1 <0>        -0.3205
     18 O4         -0.8033   -4.9904   -2.1796 O.3       1 <0>        -0.0845
     19 C11         1.9374   -5.6218   -4.4870 C.ar      1 <0>        -0.0403
     20 C12         3.3104   -5.4774   -4.2953 C.ar      1 <0>        -0.0398
     21 C13         4.1844   -5.7811   -5.3187 C.ar      1 <0>        -0.1030
     22 C14         3.7023   -6.2290   -6.5359 C.ar      1 <0>        -0.1012
     23 C15         2.3404   -6.3749   -6.7354 C.ar      1 <0>         0.0590
     24 C16         1.4539   -6.0784   -5.7130 C.ar      1 <0>         0.1036
     25 F1          0.1248   -6.2258   -5.9048 F         1 <0>        -0.1104
     26 F2          1.8757   -6.8117   -7.9263 F         1 <0>        -0.1252
     27 C17        -2.5005   -0.0295    0.0141 C.3       1 <0>        -0.0857
     28 H1          1.0042    1.8801    0.0026 H         1 <0>         0.0827
     29 H2         -0.5455    1.8639   -0.8728 H         1 <0>         0.0786
     30 H3         -0.5286    1.8543    0.9071 H         1 <0>         0.0806
     31 H4          2.5678    0.6809   -0.9096 H         1 <0>         0.0809
     32 H5          2.5851    0.6720    0.8702 H         1 <0>         0.0823
     33 H6          1.1562   -4.4784    0.4863 H         1 <0>         0.1552
     34 H7         -0.6200   -4.5927    0.4940 H         1 <0>         0.1375
     35 H8          3.6897   -5.1277   -3.3465 H         1 <0>         0.1648
     36 H9          5.2481   -5.6687   -5.1694 H         1 <0>         0.1542
     37 H10         4.3912   -6.4652   -7.3334 H         1 <0>         0.1528
     38 H11        -2.8284    0.1430   -1.0110 H         1 <0>         0.0690
     39 H12        -3.2288   -0.6568    0.5279 H         1 <0>         0.0734
     40 H13        -2.4129    0.9251    0.5330 H         1 <0>         0.0703
@<TRIPOS>BOND
     1    1    2 1
     2    1   28 1
     3    1   29 1
     4    1   30 1
     5    2    8 1
     6    2    3 2
     7    3    4 1
     8    3   27 1
     9    4    5 2
    10    4    6 am
    11    6    7 1
    12    6   13 1
    13    7    8 2
    14    8    9 1
    15    9   10 1
    16    9   31 1
    17    9   32 1
    18   10   11 2
    19   10   12 1
    20   13   14 1
    21   13   33 1
    22   13   34 1
    23   14   18 1
    24   14   15 2
    25   15   16 1
    26   16   17 2
    27   16   19 1
    28   17   18 1
    29   19   24 ar
    30   19   20 ar
    31   20   21 ar
    32   20   35 1
    33   21   22 ar
    34   21   36 1
    35   22   23 ar
    36   22   37 1
    37   23   24 ar
    38   23   26 1
    39   24   25 1
    40   27   38 1
    41   27   39 1
    42   27   40 1
@<TRIPOS>MOLECULE
CHEMBL197878
   37    40     0     0     0
SMALL
USER_CHARGES

@<TRIPOS>ATOM
      1 C1         -0.2508    1.3460    0.3250 C.ar      1 <0>        -0.0980
      2 C2          0.9122    2.0918    0.2546 C.ar      1 <0>        -0.1256
      3 C3          2.1343    1.4604    0.1438 C.ar      1 <0>        -0.0898
      4 C4          2.1954    0.0683    0.1030 C.ar      1 <0>        -0.0779
      5 C5          1.0202   -0.6780    0.1743 C.ar      1 <0>        -0.0513
      6 C6         -0.1962   -0.0357    0.2849 C.ar      1 <0>        -0.1160
      7 C7          3.5054   -0.6159   -0.0165 C.2       1 <0>         0.0281
      8 C8          4.3968   -0.6293   -1.1906 C.ar      1 <0>        -0.1466
      9 C9          4.3355   -0.0688   -2.4637 C.ar      1 <0>        -0.0482
     10 C10         5.3679   -0.2803   -3.3513 C.ar      1 <0>        -0.1389
     11 C11         6.4625   -1.0475   -2.9798 C.ar      1 <0>        -0.0674
     12 C12         6.5342   -1.6074   -1.7225 C.ar      1 <0>        -0.1163
     13 C13         5.5033   -1.4053   -0.8127 C.ar      1 <0>         0.0832
     14 O1          5.2977   -1.8149    0.4556 O.3       1 <0>        -0.1352
     15 C14         4.1305   -1.3510    0.9317 C.2       1 <0>        -0.5270
     16 S1          3.5041   -1.6583    2.5497 S.o2      1 <0>         2.6349
     17 O2          2.0870   -1.6501    2.4449 O.2       1 <0>        -0.8742
     18 O3          4.2238   -2.7727    3.0589 O.2       1 <0>        -0.8941
     19 C15         3.9432   -0.2757    3.5497 C.2       1 <0>        -0.5006
     20 C16         5.2110   -0.2255    4.1524 C.2       1 <0>        -0.0288
     21 C17         5.5204    0.8604    4.9212 C.2       1 <0>        -0.1778
     22 C18         4.5419    1.8680    5.0619 C.2       1 <0>         0.4854
     23 N1          3.3548    1.7252    4.4420 N.am      1 <0>        -0.4280
     24 N2          3.0909    0.6964    3.7207 N.2       1 <0>        -0.0740
     25 O4          4.7690    2.8582    5.7385 O.2       1 <0>        -0.5044
     26 H1         -1.2046    1.8442    0.4162 H         1 <0>         0.1261
     27 H2          0.8636    3.1702    0.2860 H         1 <0>         0.1262
     28 H3          3.0416    2.0437    0.0885 H         1 <0>         0.1203
     29 H4          1.0615   -1.7567    0.1428 H         1 <0>         0.1295
     30 H5         -1.1074   -0.6129    0.3402 H         1 <0>         0.1302
     31 H6          3.4835    0.5280   -2.7539 H         1 <0>         0.1339
     32 H7          5.3248    0.1525   -4.3399 H         1 <0>         0.1375
     33 H8          7.2662   -1.2079   -3.6831 H         1 <0>         0.1433
     34 H9          7.3914   -2.2025   -1.4442 H         1 <0>         0.1416
     35 H10         5.9229   -1.0254    4.0119 H         1 <0>         0.1731
     36 H11         6.4819    0.9451    5.4058 H         1 <0>         0.1777
     37 H12         2.6838    2.4187    4.5399 H         1 <0>         0.4492
@<TRIPOS>BOND
     1    1    6 ar
     2    1    2 ar
     3    1   26 1
     4    2    3 ar
     5    2   27 1
     6    3    4 ar
     7    3   28 1
     8    4    5 ar
     9    4    7 1
    10    5    6 ar
    11    5   29 1
    12    6   30 1
    13    7   15 2
    14    7    8 1
    15    8   13 ar
    16    8    9 ar
    17    9   10 ar
    18    9   31 1
    19   10   11 ar
    20   10   32 1
    21   11   12 ar
    22   11   33 1
    23   12   13 ar
    24   12   34 1
    25   13   14 1
    26   14   15 1
    27   15   16 1
    28   16   17 2
    29   16   18 2
    30   16   19 1
    31   19   20 1
    32   19   24 2
    33   20   21 2
    34   20   35 1
    35   21   22 1
    36   21   36 1
    37   22   25 2
    38   22   23 am
    39   23   24 1
    40   23   37 1
@<TRIPOS>MOLECULE
CHEMBL197878__1
   36    39     0     0     0
SMALL
USER_CHARGES

@<TRIPOS>ATOM
      1 C1         -0.0167    1.3791    0.0096 C.ar      1 <0>        -0.1082
      2 C2          1.1686    2.0923    0.0021 C.ar      1 <0>        -0.1269
      3 C3          2.3774    1.4268   -0.0129 C.ar      1 <0>        -0.0905
      4 C4          2.4025    0.0330   -0.0206 C.ar      1 <0>        -0.0542
      5 C5          1.2049   -0.6804   -0.0130 C.ar      1 <0>        -0.0698
      6 C6          0.0021   -0.0041    0.0020 C.ar      1 <0>        -0.1045
      7 C7          3.6980   -0.6879   -0.0373 C.2       1 <0>         0.0057
      8 C8          4.7083   -0.6745   -1.1109 C.ar      1 <0>        -0.1390
      9 C9          4.7983   -0.0517   -2.3529 C.ar      1 <0>        -0.0503
     10 C10         5.9127   -0.2545   -3.1373 C.ar      1 <0>        -0.1448
     11 C11         6.9397   -1.0747   -2.6932 C.ar      1 <0>        -0.0786
     12 C12         6.8619   -1.6965   -1.4658 C.ar      1 <0>        -0.1153
     13 C13         5.7463   -1.5042   -0.6597 C.ar      1 <0>         0.0748
     14 O1          5.3958   -1.9673    0.5575 O.3       1 <0>        -0.1371
     15 C14         4.1981   -1.4882    0.9321 C.2       1 <0>        -0.5034
     16 S1          3.3951   -1.8520    2.4577 S.o2      1 <0>         2.6262
     17 O2          4.4153   -2.2202    3.3758 O.2       1 <0>        -0.9306
     18 O3          2.4949   -0.7814    2.7083 O.2       1 <0>        -0.8962
     19 C15         2.4089   -3.2888    2.1977 C.ar      1 <0>        -0.6257
     20 C16         2.9467   -4.5485    2.4173 C.ar      1 <0>        -0.0276
     21 C17         2.1339   -5.6509    2.1998 C.ar      1 <0>        -0.2339
     22 C18         0.8278   -5.4241    1.7743 C.ar      1 <0>         0.3873
     23 N1          0.4031   -4.1838    1.5916 N.ar      1 <0>        -0.3387
     24 N2          1.1580   -3.1668    1.7996 N.ar      1 <0>        -0.0918
     25 O4         -0.0062   -6.4702    1.5475 O.3       1 <0>        -0.6630
     26 H1         -0.9603    1.9042    0.0260 H         1 <0>         0.1215
     27 H2          1.1479    3.1721    0.0077 H         1 <0>         0.1218
     28 H3          3.3022    1.9846   -0.0191 H         1 <0>         0.1190
     29 H4          1.2183   -1.7603   -0.0193 H         1 <0>         0.1337
     30 H5         -0.9264   -0.5557    0.0079 H         1 <0>         0.1306
     31 H6          3.9989    0.5864   -2.6997 H         1 <0>         0.1322
     32 H7          5.9869    0.2265   -4.1015 H         1 <0>         0.1329
     33 H8          7.8087   -1.2278   -3.3159 H         1 <0>         0.1379
     34 H9          7.6677   -2.3325   -1.1303 H         1 <0>         0.1374
     35 H10         3.9681   -4.6672    2.7474 H         1 <0>         0.1372
     36 H11         2.5026   -6.6540    2.3553 H         1 <0>         0.1319
@<TRIPOS>BOND
     1    1    6 ar
     2    1    2 ar
     3    1   26 1
     4    2    3 ar
     5    2   27 1
     6    3    4 ar
     7    3   28 1
     8    4    5 ar
     9    4    7 1
    10    5    6 ar
    11    5   29 1
    12    6   30 1
    13    7   15 2
    14    7    8 1
    15    8   13 ar
    16    8    9 ar
    17    9   10 ar
    18    9   31 1
    19   10   11 ar
    20   10   32 1
    21   11   12 ar
    22   11   33 1
    23   12   13 ar
    24   12   34 1
    25   13   14 1
    26   14   15 1
    27   15   16 1
    28   16   17 2
    29   16   18 2
    30   16   19 1
    31   19   20 ar
    32   19   24 ar
    33   20   21 ar
    34   20   35 1
    35   21   22 ar
    36   21   36 1
    37   22   25 1
    38   22   23 ar
    39   23   24 ar
@<TRIPOS>MOLECULE
CHEMBL41232
   40    41     0     0     0
SMALL
USER_CHARGES

@<TRIPOS>ATOM
      1 C1         -2.1276   -2.4468    1.1537 C.ar      1 <0>        -0.1075
      2 C2         -2.0225   -3.6890    1.7548 C.ar      1 <0>        -0.1229
      3 C3         -0.8188   -4.3616    1.7501 C.ar      1 <0>        -0.0918
      4 C4          0.2975   -3.7854    1.1358 C.ar      1 <0>        -0.0795
      5 C5          0.1833   -2.5299    0.5307 C.ar      1 <0>        -0.1000
      6 C6         -1.0273   -1.8698    0.5438 C.ar      1 <0>        -0.1235
      7 C7          1.5863   -4.4965    1.1268 C.2       1 <0>        -0.0080
      8 C8          2.6605   -3.9376    0.5335 C.2       1 <0>        -0.2166
      9 C9          3.9421   -4.6448    0.5245 C.2       1 <0>         0.5469
     10 O1          4.0382   -5.7372    1.0525 O.2       1 <0>        -0.5146
     11 N1          5.0158   -4.0862   -0.0685 N.am      1 <0>        -0.6711
     12 C10         6.2620   -4.7157    0.0061 C.ar      1 <0>         0.1917
     13 C11         7.4211   -3.9560    0.1001 C.ar      1 <0>        -0.1680
     14 C12         8.6504   -4.5810    0.1735 C.ar      1 <0>         0.0007
     15 C13         8.7283   -5.9615    0.1535 C.ar      1 <0>        -0.6856
     16 C14         7.5763   -6.7208    0.0600 C.ar      1 <0>         0.0003
     17 C15         6.3434   -6.1023   -0.0080 C.ar      1 <0>        -0.1427
     18 S1         10.2988   -6.7548    0.2468 S.o2      1 <0>         2.6930
     19 O2         10.1405   -8.0393   -0.3399 O.2       1 <0>        -0.9649
     20 O3         11.2566   -5.8158   -0.2224 O.2       1 <0>        -0.9719
     21 N2         10.6269   -7.0042    1.8507 N.pl3     1 <0>        -1.0878
     22 C16         9.7893   -7.9133    2.6370 C.3       1 <0>         0.0477
     23 C17        10.4900   -8.2522    3.9274 C.2       1 <0>         0.4964
     24 O4         11.5873   -7.7784    4.1680 O.co2     1 <0>        -0.6859
     25 O5          9.9595   -9.0004    4.7308 O.co2     1 <0>        -0.6908
     26 H1         -3.0742   -1.9269    1.1568 H         1 <0>         0.1245
     27 H2         -2.8855   -4.1326    2.2291 H         1 <0>         0.1271
     28 H3         -0.7383   -5.3308    2.2198 H         1 <0>         0.1302
     29 H4          1.0411   -2.0782    0.0547 H         1 <0>         0.1277
     30 H5         -1.1172   -0.9003    0.0766 H         1 <0>         0.1261
     31 H6          1.6716   -5.4658    1.5953 H         1 <0>         0.1398
     32 H7          2.5753   -2.9683    0.0650 H         1 <0>         0.1330
     33 H8          4.9240   -3.2474   -0.5469 H         1 <0>         0.4137
     34 H9          7.3610   -2.8778    0.1154 H         1 <0>         0.1338
     35 H10         9.5520   -3.9908    0.2462 H         1 <0>         0.1448
     36 H11         7.6406   -7.7988    0.0443 H         1 <0>         0.1452
     37 H12         5.4438   -6.6959   -0.0765 H         1 <0>         0.1474
     38 H13        11.3736   -6.5483    2.2696 H         1 <0>         0.4242
     39 H14         8.8367   -7.4312    2.8565 H         1 <0>         0.0615
     40 H15         9.6120   -8.8266    2.0690 H         1 <0>         0.0774
@<TRIPOS>BOND
     1    1    6 ar
     2    1    2 ar
     3    1   26 1
     4    2    3 ar
     5    2   27 1
     6    3    4 ar
     7    3   28 1
     8    4    5 ar
     9    4    7 1
    10    5    6 ar
    11    5   29 1
    12    6   30 1
    13    7    8 2
    14    7   31 1
    15    8    9 1
    16    8   32 1
    17    9   10 2
    18    9   11 am
    19   11   12 1
    20   11   33 1
    21   12   17 ar
    22   12   13 ar
    23   13   14 ar
    24   13   34 1
    25   14   15 ar
    26   14   35 1
    27   15   16 ar
    28   15   18 1
    29   16   17 ar
    30   16   36 1
    31   17   37 1
    32   18   19 2
    33   18   20 2
    34   18   21 1
    35   21   22 1
    36   21   38 1
    37   22   23 1
    38   22   39 1
    39   22   40 1
    40   23   24 2
    41   23   25 1
@<TRIPOS>MOLECULE
CHEMBL269455
   29    32     0     0     0
SMALL
USER_CHARGES

@<TRIPOS>ATOM
      1 C1         -0.0167    1.3810    0.0096 C.ar      1 <0>        -0.1308
      2 C2          1.1657    2.0908    0.0022 C.ar      1 <0>        -0.0612
      3 C3          2.3864    1.4147   -0.0132 C.ar      1 <0>        -0.0440
      4 C4          2.3970    0.0200   -0.0196 C.ar      1 <0>        -0.0769
      5 C5          1.2109   -0.6819   -0.0124 C.ar      1 <0>        -0.1098
      6 C6          0.0021   -0.0041    0.0020 C.ar      1 <0>         0.1132
      7 F1         -1.1590   -0.6948    0.0088 F         1 <0>        -0.1277
      8 C7          3.8357   -0.4119   -0.0324 C.3       1 <0>         0.2151
      9 C8          4.6660    0.8400   -0.0378 C.ar      1 <0>        -0.0769
     10 C9          3.7826    1.9193   -0.0256 C.ar      1 <0>        -0.0440
     11 C10         4.2891    3.2196   -0.0274 C.ar      1 <0>        -0.0612
     12 C11         5.6520    3.4298   -0.0420 C.ar      1 <0>        -0.1308
     13 C12         6.5229    2.3527   -0.0557 C.ar      1 <0>         0.1132
     14 C13         6.0267    1.0587   -0.0520 C.ar      1 <0>        -0.1098
     15 F2          7.8573    2.5638   -0.0711 F         1 <0>        -0.1277
     16 C14         4.1393   -1.2787   -1.2291 C.2       1 <0>         0.5438
     17 O1          4.0230   -0.9833   -2.3992 O.2       1 <0>        -0.4373
     18 N1          4.5680   -2.4534   -0.7201 N.am      1 <0>        -0.6782
     19 C15         4.5731   -2.4378    0.6189 C.2       1 <0>         0.7061
     20 O2          4.9186   -3.3798    1.3047 O.2       1 <0>        -0.5259
     21 N2          4.1516   -1.2600    1.1203 N.am      1 <0>        -0.7051
     22 H1         -0.9600    1.9066    0.0260 H         1 <0>         0.1496
     23 H2          1.1470    3.1706    0.0079 H         1 <0>         0.1448
     24 H3          1.2234   -1.7618   -0.0187 H         1 <0>         0.1402
     25 H4          3.6133    4.0620   -0.0178 H         1 <0>         0.1448
     26 H5          6.0414    4.4372   -0.0432 H         1 <0>         0.1497
     27 H6          6.7074    0.2202   -0.0624 H         1 <0>         0.1402
     28 H7          4.8383   -3.2143   -1.2576 H         1 <0>         0.4394
     29 H8          4.0731   -1.0213    2.0572 H         1 <0>         0.4472
@<TRIPOS>BOND
     1    1    6 ar
     2    1    2 ar
     3    1   22 1
     4    2    3 ar
     5    2   23 1
     6    3   10 1
     7    3    4 ar
     8    4    5 ar
     9    4    8 1
    10    5    6 ar
    11    5   24 1
    12    6    7 1
    13    8   21 1
    14    8    9 1
    15    8   16 1
    16    9   14 ar
    17    9   10 ar
    18   10   11 ar
    19   11   12 ar
    20   11   25 1
    21   12   13 ar
    22   12   26 1
    23   13   14 ar
    24   13   15 1
    25   14   27 1
    26   16   17 2
    27   16   18 am
    28   18   19 am
    29   18   28 1
    30   19   20 2
    31   19   21 am
    32   21   29 1
@<TRIPOS>MOLECULE
CHEMBL269455__1
   28    31     0     0     0
SMALL
USER_CHARGES

@<TRIPOS>ATOM
      1 C1         -0.0167    1.3810    0.0096 C.ar      1 <0>        -0.1524
      2 C2          1.1658    2.0907    0.0022 C.ar      1 <0>        -0.0686
      3 C3          2.3864    1.4147   -0.0124 C.ar      1 <0>        -0.0583
      4 C4          2.3970    0.0199   -0.0180 C.ar      1 <0>        -0.0301
      5 C5          1.2108   -0.6819   -0.0117 C.ar      1 <0>        -0.1154
      6 C6          0.0021   -0.0041    0.0020 C.ar      1 <0>         0.1044
      7 F1         -1.1590   -0.6948    0.0085 F         1 <0>        -0.1374
      8 C7          3.8357   -0.4116   -0.0294 C.3       1 <0>         0.1702
      9 C8          4.6661    0.8400   -0.0363 C.ar      1 <0>        -0.0302
     10 C9          3.7827    1.9193   -0.0251 C.ar      1 <0>        -0.0582
     11 C10         4.2891    3.2196   -0.0262 C.ar      1 <0>        -0.0686
     12 C11         5.6521    3.4299   -0.0399 C.ar      1 <0>        -0.1524
     13 C12         6.5230    2.3527   -0.0520 C.ar      1 <0>         0.1043
     14 C13         6.0268    1.0587   -0.0502 C.ar      1 <0>        -0.1154
     15 F2          7.8574    2.5639   -0.0663 F         1 <0>        -0.1374
     16 C14         4.1414   -1.2835   -1.2210 C.2       1 <0>         0.4770
     17 O1          4.0129   -0.9570   -2.5173 O.3       1 <0>        -0.6225
     18 N1          4.5571   -2.4232   -0.7326 N.2       1 <0>        -0.6635
     19 C15         4.5707   -2.4318    0.6075 C.2       1 <0>         0.6606
     20 O2          4.9208   -3.3850    1.2781 O.2       1 <0>        -0.5831
     21 N2          4.1508   -1.2584    1.1256 N.am      1 <0>        -0.7534
     22 H1         -0.9600    1.9067    0.0260 H         1 <0>         0.1392
     23 H2          1.1471    3.1705    0.0072 H         1 <0>         0.1348
     24 H3          1.2233   -1.7618   -0.0176 H         1 <0>         0.1370
     25 H4          3.6133    4.0619   -0.0168 H         1 <0>         0.1348
     26 H5          6.0415    4.4372   -0.0415 H         1 <0>         0.1392
     27 H6          6.7075    0.2203   -0.0590 H         1 <0>         0.1369
     28 H7          4.0740   -1.0245    2.0638 H         1 <0>         0.4087
@<TRIPOS>BOND
     1    1    6 ar
     2    1    2 ar
     3    1   22 1
     4    2    3 ar
     5    2   23 1
     6    3   10 1
     7    3    4 ar
     8    4    5 ar
     9    4    8 1
    10    5    6 ar
    11    5   24 1
    12    6    7 1
    13    8   21 1
    14    8    9 1
    15    8   16 1
    16    9   14 ar
    17    9   10 ar
    18   10   11 ar
    19   11   12 ar
    20   11   25 1
    21   12   13 ar
    22   12   26 1
    23   13   14 ar
    24   13   15 1
    25   14   27 1
    26   16   17 1
    27   16   18 2
    28   18   19 1
    29   19   20 2
    30   19   21 am
    31   21   28 1
@<TRIPOS>MOLECULE
CHEMBL69591
   36    39     0     0     0
SMALL
USER_CHARGES

@<TRIPOS>ATOM
      1 C1         -0.0168    1.3842    0.0097 C.ar      1 <0>        -0.1835
      2 C2          1.1754    2.0846    0.0020 C.ar      1 <0>        -0.0082
      3 C3          2.3638    1.3512   -0.0133 C.ar      1 <0>        -0.1878
      4 C4          2.3067   -0.0610   -0.0203 C.ar      1 <0>         0.1681
      5 C5          3.5673   -0.8057   -0.0369 C.2       1 <0>         0.1399
      6 N1          4.7000   -0.1694   -0.0447 N.2       1 <0>        -0.1067
      7 N2          4.7843    1.2232   -0.0380 N.am      1 <0>        -0.4401
      8 C6          3.6799    1.9989   -0.0228 C.2       1 <0>         0.5252
      9 O1          3.7742    3.2133   -0.0176 O.2       1 <0>        -0.5321
     10 C7          6.1041    1.8591   -0.0472 C.3       1 <0>         0.2199
     11 C8          6.5702    2.0696    1.3704 C.2       1 <0>         0.0988
     12 N3          7.2679    1.2572    2.1094 N.2       1 <0>        -0.4756
     13 C9          7.6252    1.5632    3.3737 C.ar      1 <0>         0.1136
     14 C10         8.3704    0.8146    4.3090 C.ar      1 <0>        -0.0935
     15 C11         8.6238    1.3195    5.5603 C.ar      1 <0>         0.1093
     16 C12         8.1592    2.5726    5.9431 C.ar      1 <0>        -0.1356
     17 C13         7.4268    3.3296    5.0487 C.ar      1 <0>        -0.0332
     18 C14         7.1684    2.8324    3.7945 C.ar      1 <0>        -0.1904
     19 S1          6.3121    3.4115    2.3528 S.3       1 <0>         0.1139
     20 F1          9.3394    0.5830    6.4382 F         1 <0>        -0.1340
     21 C15         3.5508   -2.3126   -0.0444 C.3       1 <0>        -0.1212
     22 C16         4.9660   -2.8303   -0.0614 C.2       1 <0>         0.4872
     23 O2          5.9012   -2.0482   -0.0669 O.co2     1 <0>        -0.6506
     24 O3          5.1756   -4.0313   -0.0696 O.co2     1 <0>        -0.7041
     25 N4          1.1309   -0.6797   -0.0124 N.ar      1 <0>        -0.4577
     26 C17         0.0021   -0.0041    0.0020 C.ar      1 <0>         0.1343
     27 H1         -0.9576    1.9142    0.0260 H         1 <0>         0.1453
     28 H2          1.1872    3.1645    0.0074 H         1 <0>         0.1507
     29 H3          6.8127    1.2179   -0.5713 H         1 <0>         0.1378
     30 H4          6.0402    2.8214   -0.5553 H         1 <0>         0.1241
     31 H5          8.7436   -0.1623    4.0390 H         1 <0>         0.1502
     32 H6          8.3688    2.9515    6.9325 H         1 <0>         0.1491
     33 H7          7.0598    4.3045    5.3337 H         1 <0>         0.1431
     34 H8          3.0421   -2.6748    0.8490 H         1 <0>         0.0880
     35 H9          3.0240   -2.6657   -0.9309 H         1 <0>         0.0895
     36 H10        -0.9338   -0.5431    0.0084 H         1 <0>         0.1664
@<TRIPOS>BOND
     1    1   26 ar
     2    1    2 ar
     3    1   27 1
     4    2    3 ar
     5    2   28 1
     6    3    8 1
     7    3    4 ar
     8    4    5 1
     9    4   25 ar
    10    5    6 2
    11    5   21 1
    12    6    7 1
    13    7    8 am
    14    7   10 1
    15    8    9 2
    16   10   11 1
    17   10   29 1
    18   10   30 1
    19   11   19 1
    20   11   12 2
    21   12   13 1
    22   13   18 ar
    23   13   14 ar
    24   14   15 ar
    25   14   31 1
    26   15   16 ar
    27   15   20 1
    28   16   17 ar
    29   16   32 1
    30   17   18 ar
    31   17   33 1
    32   18   19 1
    33   21   22 1
    34   21   34 1
    35   21   35 1
    36   22   23 2
    37   22   24 1
    38   25   26 ar
    39   26   36 1
@<TRIPOS>MOLECULE
CHEMBL62197
   28    29     0     0     0
SMALL
USER_CHARGES

@<TRIPOS>ATOM
      1 C1         -0.0184    1.5028    0.0103 C.3       1 <0>        -0.1226
      2 C2          0.0021   -0.0041    0.0020 C.2       1 <0>         0.0033
      3 C3          0.0060   -0.6906   -1.1673 C.2       1 <0>        -0.2026
      4 C4          0.0257   -2.1018   -1.1630 C.2       1 <0>         0.5353
      5 O1          0.0290   -2.6991   -2.2255 O.2       1 <0>        -0.5226
      6 N1          0.0415   -2.8039   -0.0164 N.am      1 <0>        -0.4788
      7 C5          0.0380   -2.1659    1.2057 C.ar      1 <0>         0.2600
      8 C6          0.0242   -0.7590    1.2563 C.ar      1 <0>        -0.1378
      9 C7          0.0261   -0.1067    2.4934 C.ar      1 <0>         0.0116
     10 C8          0.0466   -0.8403    3.6459 C.ar      1 <0>        -0.0954
     11 C9          0.0660   -2.2274    3.5999 C.ar      1 <0>        -0.0158
     12 C10         0.0533   -2.8916    2.3920 C.ar      1 <0>        -0.1499
     13 N2          0.0485   -0.1497    4.9551 N.pl3     1 <0>         0.0466
     14 O2          0.0321    1.0583    5.0013 O.2       1 <0>        -0.1751
     15 O3          0.0666   -0.7936    5.9782 O.3       1 <0>        -0.1689
     16 C11         0.0621   -4.2679   -0.0665 C.3       1 <0>         0.0137
     17 C12         1.4898   -4.7496   -0.0908 C.2       1 <0>         0.4892
     18 O4          2.4053   -3.9446   -0.0683 O.co2     1 <0>        -0.6773
     19 O5          1.7295   -5.9443   -0.1329 O.co2     1 <0>        -0.6836
     20 H1          1.0042    1.8801    0.0026 H         1 <0>         0.0868
     21 H2         -0.5455    1.8639   -0.8728 H         1 <0>         0.0811
     22 H3         -0.5286    1.8543    0.9071 H         1 <0>         0.0762
     23 H4         -0.0063   -0.1555   -2.1053 H         1 <0>         0.1567
     24 H5          0.0118    0.9723    2.5375 H         1 <0>         0.1601
     25 H6          0.0824   -2.7923    4.5203 H         1 <0>         0.1574
     26 H7          0.0682   -3.9712    2.3669 H         1 <0>         0.1577
     27 H8         -0.4417   -4.6687    0.8130 H         1 <0>         0.0912
     28 H9         -0.4514   -4.6079   -0.9659 H         1 <0>         0.1035
@<TRIPOS>BOND
     1    1    2 1
     2    1   20 1
     3    1   21 1
     4    1   22 1
     5    2    8 1
     6    2    3 2
     7    3    4 1
     8    3   23 1
     9    4    5 2
    10    4    6 am
    11    6    7 1
    12    6   16 1
    13    7   12 ar
    14    7    8 ar
    15    8    9 ar
    16    9   10 ar
    17    9   24 1
    18   10   11 ar
    19   10   13 1
    20   11   12 ar
    21   11   25 1
    22   12   26 1
    23   13   14 2
    24   13   15 1
    25   16   17 1
    26   16   27 1
    27   16   28 1
    28   17   18 2
    29   17   19 1
@<TRIPOS>MOLECULE
CHEMBL12655
   28    30     0     0     0
SMALL
USER_CHARGES

@<TRIPOS>ATOM
      1 C1          0.1157    1.5866   -0.3214 C.ar      1 <0>        -0.1251
      2 C2          1.3372    2.2468   -0.2477 C.ar      1 <0>        -0.1018
      3 C3          2.5058    1.5503   -0.1283 C.ar      1 <0>        -0.1097
      4 C4          2.4986    0.1570   -0.0511 C.ar      1 <0>         0.0162
      5 C5          1.2634   -0.5112   -0.2728 C.ar      1 <0>        -0.0801
      6 C6          0.0705    0.2257   -0.3289 C.ar      1 <0>        -0.0948
      7 C7          1.2509   -1.9030   -0.4858 C.ar      1 <0>        -0.0534
      8 C8          2.3941   -2.6256   -0.4143 C.ar      1 <0>        -0.1307
      9 C9          3.6085   -2.0351   -0.0564 C.ar      1 <0>         0.1594
     10 C10         3.6811   -0.6566    0.2146 C.ar      1 <0>        -0.1199
     11 C11         4.8684   -0.1666    0.8016 C.2       1 <0>         0.0933
     12 C12         5.9966   -0.9339    0.7455 C.2       1 <0>        -0.2893
     13 C13         5.9251   -2.2325    0.2074 C.2       1 <0>         0.5141
     14 O1          6.9401   -2.8530   -0.0387 O.2       1 <0>        -0.4878
     15 O2          4.7232   -2.7976   -0.0021 O.3       1 <0>        -0.2720
     16 C14         4.9343    1.1343    1.5595 C.3       1 <0>        -0.1796
     17 C15         4.4312    0.9234    2.9643 C.2       1 <0>         0.5060
     18 O3          4.1479   -0.1986    3.3483 O.co2     1 <0>        -0.6829
     19 O4          4.3076    1.8746    3.7168 O.co2     1 <0>        -0.6890
     20 H1         -0.8004    2.1544   -0.3683 H         1 <0>         0.1248
     21 H2          1.3640    3.3260   -0.2865 H         1 <0>         0.1271
     22 H3          3.4313    2.1064   -0.1591 H         1 <0>         0.1342
     23 H4         -0.8803   -0.2853   -0.3782 H         1 <0>         0.1294
     24 H5          0.3182   -2.3989   -0.7084 H         1 <0>         0.1409
     25 H6          2.3666   -3.6819   -0.6386 H         1 <0>         0.1416
     26 H7          6.9330   -0.5426    1.1118 H         1 <0>         0.1553
     27 H8          5.9661    1.4842    1.5917 H         1 <0>         0.0843
     28 H9          4.3139    1.8780    1.0593 H         1 <0>         0.0896
@<TRIPOS>BOND
     1    1    6 ar
     2    1    2 ar
     3    1   20 1
     4    2    3 ar
     5    2   21 1
     6    3    4 ar
     7    3   22 1
     8    4   10 ar
     9    4    5 ar
    10    5    6 ar
    11    5    7 ar
    12    6   23 1
    13    7    8 ar
    14    7   24 1
    15    8    9 ar
    16    8   25 1
    17    9   15 1
    18    9   10 ar
    19   10   11 1
    20   11   12 2
    21   11   16 1
    22   12   13 1
    23   12   26 1
    24   13   14 2
    25   13   15 1
    26   16   17 1
    27   16   27 1
    28   16   28 1
    29   17   18 2
    30   17   19 1
@<TRIPOS>MOLECULE
CHEMBL161043
   30    32     0     0     0
SMALL
USER_CHARGES

@<TRIPOS>ATOM
      1 C1         -0.0167    1.3835    0.0096 C.ar      1 <0>        -0.0854
      2 C2          1.1764    2.0815    0.0020 C.ar      1 <0>        -0.0573
      3 C3          2.3637    1.3909   -0.0130 C.ar      1 <0>        -0.1624
      4 C4          2.4181   -0.0212   -0.0211 C.ar      1 <0>         0.0857
      5 C5          1.1829   -0.7038   -0.0130 C.ar      1 <0>         0.0226
      6 C6          0.0021   -0.0041    0.0020 C.ar      1 <0>        -0.1048
      7 Cl1         1.1567   -2.4396   -0.0221 Cl        1 <0>        -0.0468
      8 N1          3.6759   -0.5089   -0.0358 N.2       1 <0>        -0.4794
      9 C7          4.7200    0.2671   -0.0416 C.2       1 <0>         0.0625
     10 S1          4.0836    1.8251   -0.0271 S.3       1 <0>         0.1571
     11 C8          6.1716   -0.1376   -0.0572 C.3       1 <0>         0.2144
     12 N2          6.6290   -0.2617   -1.4434 N.am      1 <0>        -0.5780
     13 C9          6.5739   -1.3850   -2.1913 C.2       1 <0>         0.5127
     14 O1          6.1456   -2.4697   -1.8575 O.2       1 <0>        -0.4081
     15 C10         7.1543   -1.0076   -3.5217 C.2       1 <0>         0.5124
     16 O2          7.2947   -1.7224   -4.4916 O.2       1 <0>        -0.4161
     17 N3          7.4876    0.2966   -3.4115 N.am      1 <0>        -0.5346
     18 C11         7.1663    0.7242   -2.1798 C.2       1 <0>         0.7144
     19 O3          7.3421    1.8583   -1.7814 O.2       1 <0>        -0.4866
     20 C12         8.0955    1.1128   -4.4653 C.3       1 <0>         0.0464
     21 C13         7.0113    1.7623   -5.2860 C.2       1 <0>         0.4874
     22 O4          5.8394    1.5621   -5.0157 O.co2     1 <0>        -0.6809
     23 O5          7.3060    2.4881   -6.2202 O.co2     1 <0>        -0.6827
     24 H1         -0.9571    1.9144    0.0260 H         1 <0>         0.1483
     25 H2          1.1751    3.1614    0.0075 H         1 <0>         0.1424
     26 H3         -0.9326   -0.5451    0.0080 H         1 <0>         0.1448
     27 H4          6.7654    0.6195    0.4550 H         1 <0>         0.1338
     28 H5          6.2873   -1.0951    0.4507 H         1 <0>         0.1356
     29 H6          8.7200    1.8833   -4.0133 H         1 <0>         0.1022
     30 H7          8.7075    0.4796   -5.1077 H         1 <0>         0.1005
@<TRIPOS>BOND
     1    1    6 ar
     2    1    2 ar
     3    1   24 1
     4    2    3 ar
     5    2   25 1
     6    3   10 1
     7    3    4 ar
     8    4    5 ar
     9    4    8 1
    10    5    6 ar
    11    5    7 1
    12    6   26 1
    13    8    9 2
    14    9   10 1
    15    9   11 1
    16   11   12 1
    17   11   27 1
    18   11   28 1
    19   12   18 am
    20   12   13 am
    21   13   14 2
    22   13   15 1
    23   15   16 2
    24   15   17 am
    25   17   18 am
    26   17   20 1
    27   18   19 2
    28   20   21 1
    29   20   29 1
    30   20   30 1
    31   21   22 2
    32   21   23 1
@<TRIPOS>MOLECULE
CHEMBL10615
   28    30     0     0     0
SMALL
USER_CHARGES

@<TRIPOS>ATOM
      1 C1         -0.0178    1.4608    0.0101 C.3       1 <0>         0.0640
      2 N1          0.0021   -0.0041    0.0020 N.am      1 <0>        -0.5651
      3 C2          0.0050   -0.6388   -1.1787 C.2       1 <0>         0.5775
      4 O1         -0.0109    0.0243   -2.1969 O.2       1 <0>        -0.5063
      5 C3          0.0272   -2.1068   -1.2924 C.ar      1 <0>        -0.1615
      6 C4          0.0318   -2.7350   -2.5377 C.ar      1 <0>        -0.0138
      7 C5          0.0528   -4.1119   -2.6092 C.ar      1 <0>        -0.1711
      8 C6          0.0694   -4.8740   -1.4505 C.ar      1 <0>         0.1466
      9 C7          0.0646   -4.2556   -0.2072 C.ar      1 <0>        -0.1495
     10 C8          0.0435   -2.8861   -0.1268 C.ar      1 <0>         0.0321
     11 C9          0.0360   -2.1603    1.1884 C.3       1 <0>        -0.1587
     12 C10         0.0221   -0.6552    1.1823 C.2       1 <0>         0.5640
     13 O2          0.0245   -0.0367    2.2250 O.2       1 <0>        -0.4725
     14 C11         1.2567   -2.6192    1.9996 C.3       1 <0>        -0.1563
     15 C12         0.6281   -3.3207    3.1872 C.2       1 <0>         0.4793
     16 O3          1.3047   -3.8981    4.1916 O.3       1 <0>        -0.6287
     17 N2         -0.6681   -3.2764    3.0837 N.2       1 <0>        -0.6750
     18 C13        -1.1341   -2.6500    2.0018 C.2       1 <0>         0.5429
     19 O4         -2.3053   -2.4991    1.7201 O.2       1 <0>        -0.5189
     20 F1          0.0899   -6.2224   -1.5318 F         1 <0>        -0.1284
     21 H1          1.0048    1.8381    0.0023 H         1 <0>         0.0712
     22 H2         -0.5450    1.8219   -0.8730 H         1 <0>         0.0905
     23 H3         -0.5280    1.8123    0.9069 H         1 <0>         0.0896
     24 H4          0.0186   -2.1454   -3.4425 H         1 <0>         0.1509
     25 H5          0.0560   -4.5996   -3.5728 H         1 <0>         0.1469
     26 H6          0.0771   -4.8509    0.6938 H         1 <0>         0.1499
     27 H7          1.8665   -3.3124    1.4203 H         1 <0>         0.1012
     28 H8          1.8475   -1.7631    2.3254 H         1 <0>         0.0991
@<TRIPOS>BOND
     1    1    2 1
     2    1   21 1
     3    1   22 1
     4    1   23 1
     5    2   12 am
     6    2    3 am
     7    3    4 2
     8    3    5 1
     9    5   10 ar
    10    5    6 ar
    11    6    7 ar
    12    6   24 1
    13    7    8 ar
    14    7   25 1
    15    8    9 ar
    16    8   20 1
    17    9   10 ar
    18    9   26 1
    19   10   11 1
    20   11   18 1
    21   11   12 1
    22   11   14 1
    23   12   13 2
    24   14   15 1
    25   14   27 1
    26   14   28 1
    27   15   16 1
    28   15   17 2
    29   17   18 1
    30   18   19 2
@<TRIPOS>MOLECULE
CHEMBL10615__1
   28    30     0     0     0
SMALL
USER_CHARGES

@<TRIPOS>ATOM
      1 C1         -0.0178    1.4608    0.0101 C.3       1 <0>         0.0639
      2 N1          0.0021   -0.0041    0.0020 N.am      1 <0>        -0.5652
      3 C2          0.0050   -0.6388   -1.1787 C.2       1 <0>         0.5775
      4 O1         -0.0070    0.0244   -2.1969 O.2       1 <0>        -0.5063
      5 C3          0.0228   -2.1069   -1.2924 C.ar      1 <0>        -0.1615
      6 C4          0.0229   -2.7352   -2.5377 C.ar      1 <0>        -0.0138
      7 C5          0.0389   -4.1121   -2.6091 C.ar      1 <0>        -0.1711
      8 C6          0.0547   -4.8742   -1.4504 C.ar      1 <0>         0.1466
      9 C7          0.0550   -4.2558   -0.2071 C.ar      1 <0>        -0.1494
     10 C8          0.0394   -2.8862   -0.1268 C.ar      1 <0>         0.0321
     11 C9          0.0392   -2.1602    1.1884 C.3       1 <0>        -0.1588
     12 C10         0.0221   -0.6552    1.1823 C.2       1 <0>         0.5641
     13 O2          0.0227   -0.0367    2.2250 O.2       1 <0>        -0.4724
     14 C11        -1.1605   -2.6528    2.0111 C.3       1 <0>        -0.1556
     15 C12        -0.5014   -3.3364    3.1926 C.2       1 <0>         0.4792
     16 O3         -1.1521   -3.9324    4.2033 O.3       1 <0>        -0.6287
     17 N2          0.7920   -3.2561    3.0768 N.2       1 <0>        -0.6750
     18 C13         1.2300   -2.6172    1.9906 C.2       1 <0>         0.5424
     19 O4          2.3940   -2.4347    1.6972 O.2       1 <0>        -0.5191
     20 F1          0.0694   -6.2227   -1.5317 F         1 <0>        -0.1284
     21 H1          1.0048    1.8381    0.0023 H         1 <0>         0.0716
     22 H2         -0.5450    1.8219   -0.8730 H         1 <0>         0.0905
     23 H3         -0.5280    1.8123    0.9069 H         1 <0>         0.0894
     24 H4          0.0103   -2.1455   -3.4424 H         1 <0>         0.1509
     25 H5          0.0387   -4.5998   -3.5726 H         1 <0>         0.1469
     26 H6          0.0672   -4.8511    0.6939 H         1 <0>         0.1499
     27 H7         -1.7718   -1.8135    2.3426 H         1 <0>         0.0989
     28 H8         -1.7564   -3.3628    1.4376 H         1 <0>         0.1014
@<TRIPOS>BOND
     1    1    2 1
     2    1   21 1
     3    1   22 1
     4    1   23 1
     5    2   12 am
     6    2    3 am
     7    3    4 2
     8    3    5 1
     9    5   10 ar
    10    5    6 ar
    11    6    7 ar
    12    6   24 1
    13    7    8 ar
    14    7   25 1
    15    8    9 ar
    16    8   20 1
    17    9   10 ar
    18    9   26 1
    19   10   11 1
    20   11   18 1
    21   11   12 1
    22   11   14 1
    23   12   13 2
    24   14   15 1
    25   14   27 1
    26   14   28 1
    27   15   16 1
    28   15   17 2
    29   17   18 1
    30   18   19 2
@<TRIPOS>MOLECULE
CHEMBL269550
   33    34     0     0     0
SMALL
USER_CHARGES

@<TRIPOS>ATOM
      1 C1         -0.0187    1.5258    0.0104 C.3       1 <0>        -0.1470
      2 C2          0.0021   -0.0041    0.0020 C.3       1 <0>         0.0638
      3 O1         -1.3386   -0.4987    0.0122 O.3       1 <0>        -0.3705
      4 C3         -1.4971   -1.8379    0.0065 C.2       1 <0>         0.5369
      5 O2         -0.5231   -2.5653   -0.0067 O.2       1 <0>        -0.5357
      6 C4         -2.8441   -2.4167    0.0162 C.2       1 <0>        -0.4658
      7 C5         -3.1563   -3.7322    0.0181 C.2       1 <0>         0.2819
      8 C6         -4.6274   -3.8826    0.0298 C.2       1 <0>         0.5140
      9 O3         -5.2200   -4.9432    0.0344 O.2       1 <0>        -0.5339
     10 N1         -5.2123   -2.6710    0.0351 N.am      1 <0>        -0.6125
     11 C7         -4.1504   -1.6579    0.0328 C.3       1 <0>         0.1940
     12 C8         -6.6537   -2.4094    0.0467 C.3       1 <0>         0.1737
     13 C9         -7.1365   -2.3197    1.4715 C.ar      1 <0>        -0.1042
     14 C10        -7.5664   -3.4575    2.1284 C.ar      1 <0>        -0.0960
     15 C11        -8.0092   -3.3753    3.4354 C.ar      1 <0>        -0.1243
     16 C12        -8.0217   -2.1554    4.0855 C.ar      1 <0>        -0.1216
     17 C13        -7.5910   -1.0178    3.4288 C.ar      1 <0>        -0.1265
     18 C14        -7.1441   -1.1007    2.1233 C.ar      1 <0>        -0.1032
     19 O4         -2.2645   -4.7494    0.0100 O.3       1 <0>        -0.6139
     20 H1          1.0039    1.9031    0.0027 H         1 <0>         0.0686
     21 H2         -0.5459    1.8868   -0.8726 H         1 <0>         0.0614
     22 H3         -0.5289    1.8773    0.9072 H         1 <0>         0.0613
     23 H4          0.5123   -0.3556   -0.8948 H         1 <0>         0.0557
     24 H5          0.5293   -0.3651    0.8851 H         1 <0>         0.0555
     25 H6         -4.2150   -1.0424    0.9301 H         1 <0>         0.0550
     26 H7         -4.2326   -1.0338   -0.8571 H         1 <0>         0.0566
     27 H8         -6.8564   -1.4688   -0.4654 H         1 <0>         0.0857
     28 H9         -7.1743   -3.2201   -0.4630 H         1 <0>         0.0869
     29 H10        -7.5566   -4.4106    1.6205 H         1 <0>         0.1257
     30 H11        -8.3458   -4.2641    3.9484 H         1 <0>         0.1196
     31 H12        -8.3684   -2.0911    5.1063 H         1 <0>         0.1178
     32 H13        -7.6011   -0.0647    3.9366 H         1 <0>         0.1194
     33 H14        -6.8041   -0.2126    1.6115 H         1 <0>         0.1218
@<TRIPOS>BOND
     1    1    2 1
     2    1   20 1
     3    1   21 1
     4    1   22 1
     5    2    3 1
     6    2   23 1
     7    2   24 1
     8    3    4 1
     9    4    5 2
    10    4    6 1
    11    6   11 1
    12    6    7 2
    13    7    8 1
    14    7   19 1
    15    8    9 2
    16    8   10 am
    17   10   11 1
    18   10   12 1
    19   11   25 1
    20   11   26 1
    21   12   13 1
    22   12   27 1
    23   12   28 1
    24   13   18 ar
    25   13   14 ar
    26   14   15 ar
    27   14   29 1
    28   15   16 ar
    29   15   30 1
    30   16   17 ar
    31   16   31 1
    32   17   18 ar
    33   17   32 1
    34   18   33 1
@<TRIPOS>MOLECULE
CHEMBL77283
   32    34     0     0     0
SMALL
USER_CHARGES

@<TRIPOS>ATOM
      1 C1         -0.0166    1.3700    0.0096 C.ar      1 <0>        -0.1047
      2 C2          1.1680    2.0955    0.0022 C.ar      1 <0>        -0.1239
      3 C3          2.3816    1.4467    0.0098 C.ar      1 <0>        -0.0773
      4 C4          2.4256    0.0499    0.0172 C.ar      1 <0>        -0.1336
      5 C5          1.2263   -0.6916   -0.0164 C.ar      1 <0>        -0.0138
      6 C6          0.0021   -0.0041    0.0020 C.ar      1 <0>        -0.1121
      7 C7          1.2359   -2.1423   -0.1099 C.2       1 <0>        -0.1258
      8 C8          2.0470   -2.9807    0.5134 C.2       1 <0>        -0.0784
      9 C9          3.1194   -2.6477    1.4360 C.ar      1 <0>        -0.0140
     10 C10         3.3171   -3.4296    2.5841 C.ar      1 <0>        -0.1094
     11 C11         4.3544   -3.1501    3.4431 C.ar      1 <0>         0.0184
     12 C12         5.2264   -2.1028    3.1874 C.ar      1 <0>        -0.1334
     13 C13         5.0519   -1.3061    2.0703 C.ar      1 <0>         0.1455
     14 C14         3.9761   -1.5500    1.2028 C.ar      1 <0>        -0.1911
     15 C15         3.7209   -0.6455    0.0758 C.2       1 <0>         0.4650
     16 O1          4.5606   -0.4752   -0.7902 O.2       1 <0>        -0.4409
     17 O2          5.9170   -0.2926    1.8145 O.3       1 <0>        -0.4985
     18 C16         4.5453   -3.9925    4.6780 C.3       1 <0>        -0.1647
     19 C17         5.4513   -5.1536    4.3589 C.2       1 <0>         0.4981
     20 O3          5.9004   -5.2850    3.2331 O.co2     1 <0>        -0.6858
     21 O4          5.7352   -5.9617    5.2266 O.co2     1 <0>        -0.6973
     22 H1         -0.9622    1.8913    0.0259 H         1 <0>         0.1265
     23 H2          1.1363    3.1750   -0.0093 H         1 <0>         0.1281
     24 H3          3.2991    2.0165    0.0097 H         1 <0>         0.1293
     25 H4         -0.9262   -0.5560    0.0103 H         1 <0>         0.1309
     26 H5          0.4972   -2.5854   -0.7615 H         1 <0>         0.1260
     27 H6          1.8956   -4.0312    0.3140 H         1 <0>         0.1290
     28 H7          2.6520   -4.2541    2.7944 H         1 <0>         0.1296
     29 H8          6.0454   -1.9080    3.8639 H         1 <0>         0.1315
     30 H9          6.6731   -0.5492    1.2689 H         1 <0>         0.3958
     31 H10         4.9944   -3.3868    5.4651 H         1 <0>         0.0751
     32 H11         3.5789   -4.3675    5.0149 H         1 <0>         0.0760
@<TRIPOS>BOND
     1    1    6 ar
     2    1    2 ar
     3    1   22 1
     4    2    3 ar
     5    2   23 1
     6    3    4 ar
     7    3   24 1
     8    4   15 1
     9    4    5 ar
    10    5    6 ar
    11    5    7 1
    12    6   25 1
    13    7    8 2
    14    7   26 1
    15    8    9 1
    16    8   27 1
    17    9   14 ar
    18    9   10 ar
    19   10   11 ar
    20   10   28 1
    21   11   12 ar
    22   11   18 1
    23   12   13 ar
    24   12   29 1
    25   13   14 ar
    26   13   17 1
    27   14   15 1
    28   15   16 2
    29   17   30 1
    30   18   19 1
    31   18   31 1
    32   18   32 1
    33   19   20 2
    34   19   21 1
@<TRIPOS>MOLECULE
CHEMBL19711
   45    47     0     0     0
SMALL
USER_CHARGES

@<TRIPOS>ATOM
      1 C1         -0.0981    1.2121    0.8609 C.ar      1 <0>        -0.1249
      2 C2          1.0814    1.9325    0.8342 C.ar      1 <0>        -0.1188
      3 C3          2.2910    1.2739    0.7160 C.ar      1 <0>        -0.1164
      4 C4          2.3212   -0.1051    0.6249 C.ar      1 <0>        -0.0817
      5 C5          1.1418   -0.8256    0.6525 C.ar      1 <0>        -0.1176
      6 C6         -0.0680   -0.1669    0.7693 C.ar      1 <0>        -0.1184
      7 C7          3.6398   -0.8230    0.4950 C.3       1 <0>        -0.0797
      8 C8          4.1770   -1.1588    1.8877 C.3       1 <0>        -0.1161
      9 C9          5.5158   -1.8877    1.7558 C.3       1 <0>         0.1258
     10 N1          6.0301   -2.2093    3.0893 N.pl3     1 <0>        -1.1029
     11 S1          7.2312   -3.3359    3.2640 S.o2      1 <0>         2.6894
     12 O1          7.5059   -3.4243    4.6553 O.2       1 <0>        -0.9533
     13 O2          6.8456   -4.4638    2.4904 O.2       1 <0>        -0.9435
     14 C10         8.6785   -2.6763    2.5058 C.ar      1 <0>        -0.6574
     15 C11         9.2194   -3.2951    1.3939 C.ar      1 <0>        -0.0011
     16 C12        10.3547   -2.7785    0.7992 C.ar      1 <0>        -0.1164
     17 C13        10.9501   -1.6414    1.3164 C.ar      1 <0>         0.0195
     18 C14        10.4082   -1.0226    2.4285 C.ar      1 <0>        -0.1120
     19 C15         9.2695   -1.5373    3.0195 C.ar      1 <0>         0.0088
     20 C16         8.6758   -0.8600    4.2277 C.3       1 <0>         0.0884
     21 C17         7.8001    0.3046    3.8098 C.2       1 <0>         0.5304
     22 O3          6.7998    0.2603    3.1263 O.2       1 <0>        -0.4359
     23 N2          8.3645    1.3995    4.3567 N.am      1 <0>        -0.6742
     24 C18         9.4636    1.0916    5.0548 C.2       1 <0>         0.7036
     25 O4         10.1442    1.9114    5.6395 O.2       1 <0>        -0.5277
     26 N3          9.7309   -0.2267    5.0376 N.am      1 <0>        -0.7109
     27 Cl1        12.3767   -0.9922    0.5701 Cl        1 <0>        -0.0413
     28 H1         -1.0429    1.7263    0.9578 H         1 <0>         0.1204
     29 H2          1.0578    3.0099    0.9054 H         1 <0>         0.1207
     30 H3          3.2125    1.8368    0.6944 H         1 <0>         0.1208
     31 H4          1.1653   -1.9029    0.5809 H         1 <0>         0.1218
     32 H5         -0.9894   -0.7298    0.7904 H         1 <0>         0.1213
     33 H6          3.4982   -1.7434   -0.0715 H         1 <0>         0.0758
     34 H7          4.3525   -0.1825   -0.0246 H         1 <0>         0.0755
     35 H8          4.3186   -0.2385    2.4541 H         1 <0>         0.0791
     36 H9          3.4643   -1.7993    2.4073 H         1 <0>         0.0712
     37 H10         5.3741   -2.8081    1.1893 H         1 <0>         0.0785
     38 H11         6.2285   -1.2473    1.2362 H         1 <0>         0.0688
     39 H12         5.6672   -1.7623    3.8699 H         1 <0>         0.4201
     40 H13         8.7546   -4.1825    0.9904 H         1 <0>         0.1622
     41 H14        10.7775   -3.2623   -0.0689 H         1 <0>         0.1521
     42 H15        10.8725   -0.1351    2.8326 H         1 <0>         0.1445
     43 H16         8.1092   -1.5734    4.8262 H         1 <0>         0.1636
     44 H17         8.0171    2.2995    4.2561 H         1 <0>         0.4394
     45 H18        10.4733   -0.6733    5.4737 H         1 <0>         0.4485
@<TRIPOS>BOND
     1    1    6 ar
     2    1    2 ar
     3    1   28 1
     4    2    3 ar
     5    2   29 1
     6    3    4 ar
     7    3   30 1
     8    4    5 ar
     9    4    7 1
    10    5    6 ar
    11    5   31 1
    12    6   32 1
    13    7    8 1
    14    7   33 1
    15    7   34 1
    16    8    9 1
    17    8   35 1
    18    8   36 1
    19    9   10 1
    20    9   37 1
    21    9   38 1
    22   10   11 1
    23   10   39 1
    24   11   12 2
    25   11   13 2
    26   11   14 1
    27   14   19 ar
    28   14   15 ar
    29   15   16 ar
    30   15   40 1
    31   16   17 ar
    32   16   41 1
    33   17   18 ar
    34   17   27 1
    35   18   19 ar
    36   18   42 1
    37   19   20 1
    38   20   26 1
    39   20   21 1
    40   20   43 1
    41   21   22 2
    42   21   23 am
    43   23   24 am
    44   23   44 1
    45   24   25 2
    46   24   26 am
    47   26   45 1
@<TRIPOS>MOLECULE
CHEMBL19711__1
   45    47     0     0     0
SMALL
USER_CHARGES

@<TRIPOS>ATOM
      1 C1          1.3196    3.7191    0.1001 C.ar      1 <0>        -0.1232
      2 C2          2.6137    4.1181    0.3774 C.ar      1 <0>        -0.1183
      3 C3          3.6449    3.1986    0.3334 C.ar      1 <0>        -0.1175
      4 C4          3.3819    1.8800    0.0125 C.ar      1 <0>        -0.0851
      5 C5          2.0877    1.4808   -0.2640 C.ar      1 <0>        -0.1169
      6 C6          1.0566    2.4006   -0.2213 C.ar      1 <0>        -0.1176
      7 C7          4.5063    0.8777   -0.0365 C.3       1 <0>        -0.0805
      8 C8          4.6812    0.2398    1.3431 C.3       1 <0>        -0.1214
      9 C9          5.8227   -0.7778    1.2934 C.3       1 <0>         0.1123
     10 N1          5.9903   -1.3887    2.6144 N.pl3     1 <0>        -1.1206
     11 S1          6.8572   -2.7905    2.7744 S.o2      1 <0>         2.6795
     12 O1          6.8946   -3.0886    4.1633 O.2       1 <0>        -0.9245
     13 O2          6.3391   -3.7003    1.8137 O.2       1 <0>        -0.9446
     14 C10         8.5141   -2.4365    2.2906 C.ar      1 <0>        -0.6555
     15 C11         9.0562   -3.0541    1.1787 C.ar      1 <0>        -0.0020
     16 C12        10.3558   -2.7772    0.7990 C.ar      1 <0>        -0.1162
     17 C13        11.1144   -1.8813    1.5316 C.ar      1 <0>         0.0191
     18 C14        10.5713   -1.2634    2.6437 C.ar      1 <0>        -0.1110
     19 C15         9.2695   -1.5373    3.0195 C.ar      1 <0>         0.0058
     20 C16         8.6758   -0.8600    4.2277 C.3       1 <0>         0.1153
     21 C17         9.0646   -1.5942    5.4956 C.2       1 <0>         0.5269
     22 O3          8.7985   -2.7400    5.7891 O.2       1 <0>        -0.4053
     23 N2          9.7683   -0.7086    6.2282 N.am      1 <0>        -0.6796
     24 C18         9.8770    0.4708    5.6060 C.2       1 <0>         0.7062
     25 O4         10.4665    1.4273    6.0693 O.2       1 <0>        -0.5302
     26 N3          9.2604    0.4798    4.4104 N.am      1 <0>        -0.7174
     27 Cl1        12.7472   -1.5334    1.0555 Cl        1 <0>        -0.0412
     28 H1          0.5132    4.4366    0.1389 H         1 <0>         0.1213
     29 H2          2.8192    5.1483    0.6282 H         1 <0>         0.1217
     30 H3          4.6561    3.5105    0.5494 H         1 <0>         0.1208
     31 H4          1.8822    0.4507   -0.5150 H         1 <0>         0.1222
     32 H5          0.0455    2.0888   -0.4377 H         1 <0>         0.1222
     33 H6          4.2717    0.1040   -0.7675 H         1 <0>         0.0784
     34 H7          5.4294    1.3811   -0.3237 H         1 <0>         0.0766
     35 H8          4.9158    1.0135    2.0741 H         1 <0>         0.0739
     36 H9          3.7581   -0.2636    1.6304 H         1 <0>         0.0772
     37 H10         5.5882   -1.5515    0.5624 H         1 <0>         0.0856
     38 H11         6.7459   -0.2744    1.0061 H         1 <0>         0.0687
     39 H12         5.5934   -0.9720    3.3953 H         1 <0>         0.4203
     40 H13         8.4640   -3.7533    0.6069 H         1 <0>         0.1618
     41 H14        10.7793   -3.2602   -0.0692 H         1 <0>         0.1521
     42 H15        11.1629   -0.5642    3.2159 H         1 <0>         0.1454
     43 H16         7.5915   -0.7960    4.1360 H         1 <0>         0.1306
     44 H17        10.1486   -0.9022    7.0993 H         1 <0>         0.4391
     45 H18         9.2107    1.2234    3.7894 H         1 <0>         0.4457
@<TRIPOS>BOND
     1    1    6 ar
     2    1    2 ar
     3    1   28 1
     4    2    3 ar
     5    2   29 1
     6    3    4 ar
     7    3   30 1
     8    4    5 ar
     9    4    7 1
    10    5    6 ar
    11    5   31 1
    12    6   32 1
    13    7    8 1
    14    7   33 1
    15    7   34 1
    16    8    9 1
    17    8   35 1
    18    8   36 1
    19    9   10 1
    20    9   37 1
    21    9   38 1
    22   10   11 1
    23   10   39 1
    24   11   12 2
    25   11   13 2
    26   11   14 1
    27   14   19 ar
    28   14   15 ar
    29   15   16 ar
    30   15   40 1
    31   16   17 ar
    32   16   41 1
    33   17   18 ar
    34   17   27 1
    35   18   19 ar
    36   18   42 1
    37   19   20 1
    38   20   26 1
    39   20   21 1
    40   20   43 1
    41   21   22 2
    42   21   23 am
    43   23   24 am
    44   23   44 1
    45   24   25 2
    46   24   26 am
    47   26   45 1
@<TRIPOS>MOLECULE
CHEMBL371914
   30    32     0     0     0
SMALL
USER_CHARGES

@<TRIPOS>ATOM
      1 C1         -0.0184    1.5028    0.0103 C.3       1 <0>        -0.1415
      2 C2          0.0021   -0.0041    0.0020 C.2       1 <0>         0.0730
      3 C3          0.0062   -0.7323   -1.2582 C.ar      1 <0>        -0.1138
      4 C4         -0.0069   -0.2199   -2.5774 C.ar      1 <0>        -0.0452
      5 C5         -0.0005   -1.0582   -3.6487 C.ar      1 <0>        -0.0443
      6 C6          0.0190   -2.4385   -3.4904 C.ar      1 <0>        -0.0616
      7 C7          0.0326   -2.9769   -2.2193 C.ar      1 <0>        -0.0719
      8 C8          0.0263   -2.1375   -1.1257 C.ar      1 <0>        -0.0987
      9 S1          0.0384   -2.3909    0.6302 S.3       1 <0>         0.1677
     10 C9          0.0223   -0.6874    1.1554 C.2       1 <0>        -0.7454
     11 S2          0.0287   -0.0528    2.7992 S.o2      1 <0>         2.6458
     12 O1          0.6013   -1.0605    3.6213 O.2       1 <0>        -0.8957
     13 O2          0.5606    1.2627    2.7245 O.2       1 <0>        -0.9006
     14 C10        -1.6523    0.1114    3.3008 C.2       1 <0>        -0.4998
     15 C11        -2.3693    1.2724    2.9676 C.2       1 <0>        -0.0328
     16 C12        -3.6709    1.3684    3.3711 C.2       1 <0>        -0.1754
     17 C13        -4.2153    0.2896    4.1007 C.2       1 <0>         0.4848
     18 N1         -3.4434   -0.7807    4.3694 N.am      1 <0>        -0.4290
     19 N2         -2.2237   -0.8482    3.9742 N.2       1 <0>        -0.0800
     20 O3         -5.3735    0.3266    4.4845 O.2       1 <0>        -0.5041
     21 Cl1        -0.0175   -0.3881   -5.2501 Cl        1 <0>        -0.0549
     22 H1          1.0042    1.8801    0.0026 H         1 <0>         0.1070
     23 H2         -0.5455    1.8639   -0.8728 H         1 <0>         0.0860
     24 H3         -0.5286    1.8543    0.9071 H         1 <0>         0.0860
     25 H4         -0.0224    0.8484   -2.7352 H         1 <0>         0.1445
     26 H5          0.0230   -3.0854   -4.3553 H         1 <0>         0.1522
     27 H6          0.0474   -4.0481   -2.0825 H         1 <0>         0.1494
     28 H7         -1.9033    2.0692    2.4069 H         1 <0>         0.1708
     29 H8         -4.2637    2.2410    3.1397 H         1 <0>         0.1775
     30 H9         -3.8195   -1.5210    4.8710 H         1 <0>         0.4500
@<TRIPOS>BOND
     1    1    2 1
     2    1   22 1
     3    1   23 1
     4    1   24 1
     5    2   10 2
     6    2    3 1
     7    3    8 ar
     8    3    4 ar
     9    4    5 ar
    10    4   25 1
    11    5    6 ar
    12    5   21 1
    13    6    7 ar
    14    6   26 1
    15    7    8 ar
    16    7   27 1
    17    8    9 1
    18    9   10 1
    19   10   11 1
    20   11   12 2
    21   11   13 2
    22   11   14 1
    23   14   15 1
    24   14   19 2
    25   15   16 2
    26   15   28 1
    27   16   17 1
    28   16   29 1
    29   17   20 2
    30   17   18 am
    31   18   19 1
    32   18   30 1
@<TRIPOS>MOLECULE
CHEMBL371914__1
   29    31     0     0     0
SMALL
USER_CHARGES

@<TRIPOS>ATOM
      1 C1         -0.0184    1.5028    0.0103 C.3       1 <0>        -0.1400
      2 C2          0.0021   -0.0041    0.0020 C.2       1 <0>         0.0575
      3 C3          0.0062   -0.7323   -1.2582 C.ar      1 <0>        -0.1028
      4 C4         -0.0069   -0.2199   -2.5774 C.ar      1 <0>        -0.0471
      5 C5         -0.0005   -1.0582   -3.6487 C.ar      1 <0>        -0.0458
      6 C6          0.0190   -2.4385   -3.4904 C.ar      1 <0>        -0.0734
      7 C7          0.0326   -2.9769   -2.2193 C.ar      1 <0>        -0.0708
      8 C8          0.0263   -2.1375   -1.1257 C.ar      1 <0>        -0.1044
      9 S1          0.0384   -2.3909    0.6302 S.3       1 <0>         0.1455
     10 C9          0.0223   -0.6874    1.1554 C.2       1 <0>        -0.7159
     11 S2          0.0287   -0.0528    2.7992 S.o2      1 <0>         2.6419
     12 O1          0.6013   -1.0605    3.6213 O.2       1 <0>        -0.9385
     13 O2          0.5606    1.2627    2.7245 O.2       1 <0>        -0.9200
     14 C10        -1.6523    0.1114    3.3008 C.ar      1 <0>        -0.6245
     15 C11        -2.2947   -0.9444    3.9309 C.ar      1 <0>        -0.0299
     16 C12        -3.6178   -0.7704    4.3081 C.ar      1 <0>        -0.2340
     17 C13        -4.2192    0.4542    4.0306 C.ar      1 <0>         0.3865
     18 N1         -3.5246    1.4041    3.4244 N.ar      1 <0>        -0.3408
     19 N2         -2.2985    1.2396    3.0823 N.ar      1 <0>        -0.0949
     20 O3         -5.5121    0.6730    4.3796 O.3       1 <0>        -0.6652
     21 Cl1        -0.0175   -0.3881   -5.2501 Cl        1 <0>        -0.0658
     22 H1          1.0042    1.8801    0.0026 H         1 <0>         0.0971
     23 H2         -0.5455    1.8639   -0.8728 H         1 <0>         0.0775
     24 H3         -0.5286    1.8543    0.9071 H         1 <0>         0.1056
     25 H4         -0.0224    0.8484   -2.7352 H         1 <0>         0.1427
     26 H5          0.0230   -3.0854   -4.3553 H         1 <0>         0.1472
     27 H6          0.0474   -4.0481   -2.0825 H         1 <0>         0.1454
     28 H7         -1.7798   -1.8744    4.1216 H         1 <0>         0.1357
     29 H8         -4.1648   -1.5603    4.8014 H         1 <0>         0.1313
@<TRIPOS>BOND
     1    1    2 1
     2    1   22 1
     3    1   23 1
     4    1   24 1
     5    2   10 2
     6    2    3 1
     7    3    8 ar
     8    3    4 ar
     9    4    5 ar
    10    4   25 1
    11    5    6 ar
    12    5   21 1
    13    6    7 ar
    14    6   26 1
    15    7    8 ar
    16    7   27 1
    17    8    9 1
    18    9   10 1
    19   10   11 1
    20   11   12 2
    21   11   13 2
    22   11   14 1
    23   14   15 ar
    24   14   19 ar
    25   15   16 ar
    26   15   28 1
    27   16   17 ar
    28   16   29 1
    29   17   20 1
    30   17   18 ar
    31   18   19 ar
@<TRIPOS>MOLECULE
CHEMBL47646
   38    41     0     0     0
SMALL
USER_CHARGES

@<TRIPOS>ATOM
      1 C1         -0.0166    1.3765    0.0096 C.ar      1 <0>        -0.0889
      2 C2          1.1657    2.0938    0.0022 C.ar      1 <0>        -0.1259
      3 C3          2.3766    1.4260   -0.0083 C.ar      1 <0>        -0.0559
      4 C4          2.4008    0.0412   -0.0145 C.ar      1 <0>        -0.1263
      5 C5          1.2131   -0.6895   -0.0146 C.ar      1 <0>         0.1538
      6 C6          0.0021   -0.0041    0.0020 C.ar      1 <0>        -0.1472
      7 N1          1.2051   -2.0808   -0.0439 N.am      1 <0>        -0.5404
      8 C7          2.2206   -2.8734   -0.3704 C.2       1 <0>         0.5262
      9 O1          2.0829   -4.0713   -0.2383 O.2       1 <0>        -0.4958
     10 C8          3.5343   -2.3571   -0.8971 C.3       1 <0>        -0.0619
     11 S1          3.9432   -0.8187   -0.0170 S.3       1 <0>        -0.0345
     12 C9          3.4123   -2.0752   -2.3959 C.3       1 <0>        -0.1744
     13 C10         4.7586   -1.6767   -2.9433 C.2       1 <0>         0.5036
     14 O2          5.7261   -1.6231   -2.2032 O.co2     1 <0>        -0.6762
     15 O3          4.8805   -1.4079   -4.1263 O.co2     1 <0>        -0.6946
     16 C11        -0.0512   -2.7391    0.3232 C.3       1 <0>         0.1763
     17 C12        -0.8953   -2.9338   -0.9099 C.2       1 <0>         0.0922
     18 N2         -0.9100   -3.9573   -1.7130 N.2       1 <0>        -0.4744
     19 C13        -1.7181   -4.0124   -2.7922 C.ar      1 <0>         0.1084
     20 C14        -1.8654   -5.0298   -3.7614 C.ar      1 <0>         0.1200
     21 C15        -2.7588   -4.8823   -4.7955 C.ar      1 <0>         0.1077
     22 C16        -3.5390   -3.7388   -4.9205 C.ar      1 <0>        -0.1432
     23 C17        -3.4169   -2.7251   -3.9866 C.ar      1 <0>         0.1851
     24 C18        -2.5252   -2.8644   -2.9482 C.ar      1 <0>        -0.2163
     25 S2         -2.0374   -1.8796   -1.5556 S.3       1 <0>         0.1705
     26 F1         -4.1681   -1.6073   -4.0933 F         1 <0>        -0.1133
     27 F2         -2.8808   -5.8694   -5.7099 F         1 <0>        -0.1112
     28 F3         -1.1229   -6.1548   -3.6713 F         1 <0>        -0.1033
     29 H1         -0.9612    1.8998    0.0260 H         1 <0>         0.1302
     30 H2          1.1434    3.1736    0.0042 H         1 <0>         0.1316
     31 H3          3.3017    1.9833   -0.0113 H         1 <0>         0.1385
     32 H4         -0.9272   -0.5544    0.0094 H         1 <0>         0.1143
     33 H5          4.3152   -3.0973   -0.7228 H         1 <0>         0.1530
     34 H6          3.0634   -2.9724   -2.9071 H         1 <0>         0.0720
     35 H7          2.7006   -1.2654   -2.5566 H         1 <0>         0.0624
     36 H8          0.1644   -3.7084    0.7727 H         1 <0>         0.1393
     37 H9         -0.5909   -2.1187    1.0387 H         1 <0>         0.1237
     38 H10        -4.2350   -3.6420   -5.7407 H         1 <0>         0.1750
@<TRIPOS>BOND
     1    1    6 ar
     2    1    2 ar
     3    1   29 1
     4    2    3 ar
     5    2   30 1
     6    3    4 ar
     7    3   31 1
     8    4   11 1
     9    4    5 ar
    10    5    6 ar
    11    5    7 1
    12    6   32 1
    13    7    8 am
    14    7   16 1
    15    8    9 2
    16    8   10 1
    17   10   11 1
    18   10   12 1
    19   10   33 1
    20   12   13 1
    21   12   34 1
    22   12   35 1
    23   13   14 2
    24   13   15 1
    25   16   17 1
    26   16   36 1
    27   16   37 1
    28   17   25 1
    29   17   18 2
    30   18   19 1
    31   19   24 ar
    32   19   20 ar
    33   20   21 ar
    34   20   28 1
    35   21   22 ar
    36   21   27 1
    37   22   23 ar
    38   22   38 1
    39   23   24 ar
    40   23   26 1
    41   24   25 1
@<TRIPOS>MOLECULE
CHEMBL47646__1
   38    41     0     0     0
SMALL
USER_CHARGES

@<TRIPOS>ATOM
      1 C1         -0.0246    1.3734    0.0441 C.ar      1 <0>        -0.0950
      2 C2          1.1560    2.0936    0.0376 C.ar      1 <0>        -0.1248
      3 C3          2.3682    1.4289    0.0069 C.ar      1 <0>        -0.0634
      4 C4          2.3956    0.0442   -0.0140 C.ar      1 <0>        -0.1258
      5 C5          1.2098   -0.6894   -0.0001 C.ar      1 <0>         0.1464
      6 C6         -0.0027   -0.0070    0.0248 C.ar      1 <0>        -0.1369
      7 N1          1.2055   -2.0811    0.0027 N.am      1 <0>        -0.5368
      8 C7          2.2301   -2.8771    0.2901 C.2       1 <0>         0.5263
      9 O1          2.0923   -4.0725    0.1376 O.2       1 <0>        -0.5128
     10 C8          3.5547   -2.3675    0.7956 C.3       1 <0>        -0.0625
     11 S1          3.9395   -0.8115   -0.0642 S.3       1 <0>        -0.0379
     12 C9          3.4674   -2.1146    2.3020 C.3       1 <0>        -0.1753
     13 C10         4.8254   -1.7230    2.8252 C.2       1 <0>         0.5034
     14 O2          5.7750   -1.6528    2.0638 O.co2     1 <0>        -0.6757
     15 O3          4.9744   -1.4765    4.0099 O.co2     1 <0>        -0.6946
     16 C11        -0.0576   -2.7355   -0.3473 C.3       1 <0>         0.1779
     17 C12        -0.8237   -3.0543    0.9107 C.2       1 <0>         0.0852
     18 N2         -1.6950   -2.3084    1.5247 N.2       1 <0>        -0.4911
     19 C13        -2.3179   -2.7104    2.6520 C.ar      1 <0>         0.1108
     20 C14        -3.2787   -2.0414    3.4428 C.ar      1 <0>         0.1148
     21 C15        -3.7921   -2.6394    4.5690 C.ar      1 <0>         0.1090
     22 C16        -3.3870   -3.9093    4.9629 C.ar      1 <0>        -0.1470
     23 C17        -2.4474   -4.5894    4.2084 C.ar      1 <0>         0.1901
     24 C18        -1.9282   -3.9984    3.0797 C.ar      1 <0>        -0.2251
     25 S2         -0.7510   -4.4589    1.8350 S.3       1 <0>         0.2158
     26 F1         -2.0431   -5.8247    4.5771 F         1 <0>        -0.1121
     27 F2         -4.7094   -1.9787    5.3088 F         1 <0>        -0.1124
     28 F3         -3.6952   -0.8056    3.0901 F         1 <0>        -0.1068
     29 H1         -0.9703    1.8944    0.0690 H         1 <0>         0.1272
     30 H2          1.1313    3.1731    0.0561 H         1 <0>         0.1290
     31 H3          3.2920    1.9884   -0.0011 H         1 <0>         0.1365
     32 H4         -0.9307   -0.5595    0.0293 H         1 <0>         0.1392
     33 H5          4.3329   -3.1022    0.5890 H         1 <0>         0.1536
     34 H6          2.7579   -1.3099    2.4948 H         1 <0>         0.0627
     35 H7          3.1325   -3.0223    2.8040 H         1 <0>         0.0721
     36 H8         -0.6502   -2.0696   -0.9746 H         1 <0>         0.1296
     37 H9          0.1493   -3.6577   -0.8903 H         1 <0>         0.1317
     38 H10        -3.8022   -4.3617    5.8513 H         1 <0>         0.1744
@<TRIPOS>BOND
     1    1    6 ar
     2    1    2 ar
     3    1   29 1
     4    2    3 ar
     5    2   30 1
     6    3    4 ar
     7    3   31 1
     8    4   11 1
     9    4    5 ar
    10    5    6 ar
    11    5    7 1
    12    6   32 1
    13    7    8 am
    14    7   16 1
    15    8    9 2
    16    8   10 1
    17   10   11 1
    18   10   12 1
    19   10   33 1
    20   12   13 1
    21   12   34 1
    22   12   35 1
    23   13   14 2
    24   13   15 1
    25   16   17 1
    26   16   36 1
    27   16   37 1
    28   17   25 1
    29   17   18 2
    30   18   19 1
    31   19   24 ar
    32   19   20 ar
    33   20   21 ar
    34   20   28 1
    35   21   22 ar
    36   21   27 1
    37   22   23 ar
    38   22   38 1
    39   23   24 ar
    40   23   26 1
    41   24   25 1
@<TRIPOS>MOLECULE
CHEMBL329563
   35    37     0     0     0
SMALL
USER_CHARGES

@<TRIPOS>ATOM
      1 C1         -0.0090    1.3873    0.1273 C.ar      1 <0>        -0.0940
      2 C2          1.0675    1.9529   -0.5332 C.ar      1 <0>        -0.1302
      3 C3          2.2733    1.2855   -0.5908 C.ar      1 <0>        -0.0675
      4 C4          2.4064    0.0369    0.0197 C.ar      1 <0>        -0.1499
      5 C5          1.3164   -0.5278    0.6848 C.ar      1 <0>        -0.0820
      6 C6          0.1161    0.1502    0.7344 C.ar      1 <0>        -0.1324
      7 C7          3.6957   -0.6843   -0.0384 C.2       1 <0>         0.4682
      8 O1          4.7339   -0.0645   -0.1712 O.2       1 <0>        -0.4629
      9 C8          3.7230   -2.1515    0.0645 C.2       1 <0>        -0.2438
     10 C9          2.5685   -3.0577    0.0809 C.2       1 <0>        -0.1486
     11 C10         3.0639   -4.3028    0.1867 C.2       1 <0>        -0.0153
     12 N1          4.4282   -4.2385    0.2368 N.pl3     1 <0>        -0.3866
     13 C11         4.8397   -2.9572    0.1592 C.2       1 <0>         0.0814
     14 C12         5.2790   -5.3481    0.3479 C.ar      1 <0>         0.2049
     15 C13         4.7453   -6.6280    0.4091 C.ar      1 <0>        -0.2158
     16 C14         5.5870   -7.7245    0.5184 C.ar      1 <0>         0.2531
     17 C15         6.9666   -7.5392    0.5666 C.ar      1 <0>        -0.0187
     18 C16         7.4958   -6.2589    0.5052 C.ar      1 <0>         0.1583
     19 C17         6.6543   -5.1659    0.3908 C.ar      1 <0>        -0.2225
     20 F1          8.8339   -6.0786    0.5524 F         1 <0>        -0.1200
     21 O2          7.7947   -8.6139    0.6744 O.3       1 <0>        -0.4779
     22 N2          5.0509   -9.0159    0.5807 N.pl3     1 <0>        -0.8572
     23 H1         -0.9497    1.9159    0.1729 H         1 <0>         0.1264
     24 H2          0.9631    2.9188   -1.0050 H         1 <0>         0.1287
     25 H3          3.1125    1.7277   -1.1072 H         1 <0>         0.1311
     26 H4          1.4126   -1.4934    1.1588 H         1 <0>         0.1389
     27 H5         -0.7279   -0.2854    1.2486 H         1 <0>         0.1285
     28 H6          1.5268   -2.7791    0.0205 H         1 <0>         0.1607
     29 H7          2.4777   -5.2090    0.2259 H         1 <0>         0.1738
     30 H8          5.8655   -2.6194    0.1711 H         1 <0>         0.1820
     31 H9          3.6753   -6.7697    0.3719 H         1 <0>         0.1423
     32 H10         7.0682   -4.1697    0.3389 H         1 <0>         0.1470
     33 H11         8.0727   -8.9830   -0.1751 H         1 <0>         0.3848
     34 H12         4.0900   -9.1442    0.5474 H         1 <0>         0.4060
     35 H13         5.6403   -9.7825    0.6572 H         1 <0>         0.4090
@<TRIPOS>BOND
     1    1    6 ar
     2    1    2 ar
     3    1   23 1
     4    2    3 ar
     5    2   24 1
     6    3    4 ar
     7    3   25 1
     8    4    5 ar
     9    4    7 1
    10    5    6 ar
    11    5   26 1
    12    6   27 1
    13    7    8 2
    14    7    9 1
    15    9   13 2
    16    9   10 1
    17   10   11 2
    18   10   28 1
    19   11   12 1
    20   11   29 1
    21   12   13 1
    22   12   14 1
    23   13   30 1
    24   14   19 ar
    25   14   15 ar
    26   15   16 ar
    27   15   31 1
    28   16   17 ar
    29   16   22 1
    30   17   18 ar
    31   17   21 1
    32   18   19 ar
    33   18   20 1
    34   19   32 1
    35   21   33 1
    36   22   34 1
    37   22   35 1
@<TRIPOS>MOLECULE
CHEMBL329563__1
   34    36     0     0     0
SMALL
USER_CHARGES

@<TRIPOS>ATOM
      1 C1         -0.0090    1.3873    0.1273 C.ar      1 <0>        -0.1018
      2 C2          1.0675    1.9529   -0.5332 C.ar      1 <0>        -0.1340
      3 C3          2.2733    1.2855   -0.5908 C.ar      1 <0>        -0.0720
      4 C4          2.4064    0.0369    0.0197 C.ar      1 <0>        -0.1400
      5 C5          1.3164   -0.5278    0.6848 C.ar      1 <0>        -0.0797
      6 C6          0.1161    0.1502    0.7344 C.ar      1 <0>        -0.1344
      7 C7          3.6957   -0.6843   -0.0384 C.2       1 <0>         0.4684
      8 O1          4.7339   -0.0645   -0.1712 O.2       1 <0>        -0.4778
      9 C8          3.7230   -2.1515    0.0645 C.2       1 <0>        -0.2763
     10 C9          2.5685   -3.0577    0.0809 C.2       1 <0>        -0.1709
     11 C10         3.0639   -4.3028    0.1867 C.2       1 <0>        -0.0185
     12 N1          4.4282   -4.2385    0.2368 N.pl3     1 <0>        -0.3386
     13 C11         4.8397   -2.9572    0.1592 C.2       1 <0>         0.0783
     14 C12         5.2790   -5.3481    0.3479 C.ar      1 <0>         0.0146
     15 C13         4.7453   -6.6280    0.4091 C.ar      1 <0>        -0.1700
     16 C14         5.5870   -7.7245    0.5184 C.ar      1 <0>         0.1175
     17 C15         6.9666   -7.5392    0.5666 C.ar      1 <0>         0.2165
     18 C16         7.4958   -6.2589    0.5052 C.ar      1 <0>        -0.0413
     19 C17         6.6543   -5.1659    0.3908 C.ar      1 <0>        -0.1367
     20 F1          8.8339   -6.0786    0.5524 F         1 <0>        -0.1531
     21 O2          7.7947   -8.6139    0.6744 O.3       1 <0>        -0.7056
     22 N2          5.0509   -9.0159    0.5807 N.pl3     1 <0>        -0.8738
     23 H1         -0.9497    1.9159    0.1729 H         1 <0>         0.1221
     24 H2          0.9631    2.9188   -1.0050 H         1 <0>         0.1246
     25 H3          3.1125    1.7277   -1.1072 H         1 <0>         0.1291
     26 H4          1.4126   -1.4934    1.1588 H         1 <0>         0.1426
     27 H5         -0.7279   -0.2854    1.2486 H         1 <0>         0.1257
     28 H6          1.5268   -2.7791    0.0205 H         1 <0>         0.1481
     29 H7          2.4777   -5.2090    0.2259 H         1 <0>         0.1631
     30 H8          5.8655   -2.6194    0.1711 H         1 <0>         0.1713
     31 H9          3.6753   -6.7697    0.3719 H         1 <0>         0.1082
     32 H10         7.0682   -4.1697    0.3389 H         1 <0>         0.1124
     33 H11         4.0900   -9.1442    0.5474 H         1 <0>         0.3821
     34 H12         5.6403   -9.7825    0.6572 H         1 <0>         0.3998
@<TRIPOS>BOND
     1    1    6 ar
     2    1    2 ar
     3    1   23 1
     4    2    3 ar
     5    2   24 1
     6    3    4 ar
     7    3   25 1
     8    4    5 ar
     9    4    7 1
    10    5    6 ar
    11    5   26 1
    12    6   27 1
    13    7    8 2
    14    7    9 1
    15    9   13 2
    16    9   10 1
    17   10   11 2
    18   10   28 1
    19   11   12 1
    20   11   29 1
    21   12   13 1
    22   12   14 1
    23   13   30 1
    24   14   19 ar
    25   14   15 ar
    26   15   16 ar
    27   15   31 1
    28   16   17 ar
    29   16   22 1
    30   17   18 ar
    31   17   21 1
    32   18   19 ar
    33   18   20 1
    34   19   32 1
    35   22   33 1
    36   22   34 1
@<TRIPOS>MOLECULE
CHEMBL192762
   49    53     0     0     0
SMALL
USER_CHARGES

@<TRIPOS>ATOM
      1 C1         -0.0169    1.3898   -0.0051 C.ar      1 <0>        -0.2102
      2 C2          1.1507    2.0980   -0.0127 C.ar      1 <0>        -0.0356
      3 C3          2.3731    1.4232   -0.0133 C.ar      1 <0>        -0.1409
      4 C4          2.4014    0.0165   -0.0061 C.ar      1 <0>         0.1663
      5 C5          1.2042   -0.6903    0.0015 C.ar      1 <0>        -0.1996
      6 C6          0.0021   -0.0041    0.0020 C.ar      1 <0>         0.2257
      7 N1         -1.2021   -0.7142    0.0102 N.pl3     1 <0>        -0.6354
      8 C7         -2.4921   -0.0166    0.1305 C.3       1 <0>         0.0918
      9 C8         -3.4161   -0.5124   -0.9876 C.3       1 <0>         0.0450
     10 O1         -3.4621   -1.9411   -0.9615 O.3       1 <0>        -0.3837
     11 C9         -2.2031   -2.5718   -1.2087 C.3       1 <0>         0.0462
     12 C10        -1.2173   -2.1809   -0.1075 C.3       1 <0>         0.0878
     13 N2          3.7250   -0.3634   -0.0086 N.pl3     1 <0>        -0.4404
     14 C11         4.5277    0.7468   -0.0170 C.2       1 <0>         0.0974
     15 C12         3.7734    1.8565   -0.0202 C.2       1 <0>        -0.2059
     16 C13         4.2715    3.2787   -0.0288 C.3       1 <0>         0.0451
     17 C14         4.3255    3.8006    1.3840 C.2       1 <0>         0.1524
     18 N3          5.3227    3.7438    2.2176 N.2       1 <0>        -0.5150
     19 C15         5.2462    4.2521    3.4652 C.ar      1 <0>         0.1220
     20 C16         6.2161    4.2795    4.4922 C.ar      1 <0>         0.1062
     21 C17         5.9280    4.8546    5.7070 C.ar      1 <0>         0.1087
     22 C18         4.6853    5.4226    5.9623 C.ar      1 <0>        -0.1575
     23 C19         3.7150    5.4110    4.9759 C.ar      1 <0>         0.1901
     24 C20         3.9949    4.8373    3.7571 C.ar      1 <0>        -0.2264
     25 S1          3.1120    4.5951    2.2376 S.3       1 <0>         0.1598
     26 F1          2.5022    5.9591    5.2077 F         1 <0>        -0.1154
     27 F2          6.8722    4.8678    6.6731 F         1 <0>        -0.1146
     28 F3          7.4346    3.7363    4.2791 F         1 <0>        -0.1087
     29 C21         4.2034   -1.7481   -0.0026 C.3       1 <0>         0.0321
     30 C22         4.2456   -2.2711   -1.4153 C.2       1 <0>         0.4818
     31 O2          3.9073   -1.5537   -2.3413 O.co2     1 <0>        -0.6703
     32 O3          4.6179   -3.4116   -1.6322 O.co2     1 <0>        -0.6921
     33 H1         -0.9616    1.9133   -0.0002 H         1 <0>         0.1177
     34 H2          1.1286    3.1777   -0.0185 H         1 <0>         0.1137
     35 H3          1.2121   -1.7703    0.0071 H         1 <0>         0.1153
     36 H4         -2.9390   -0.2358    1.1003 H         1 <0>         0.0643
     37 H5         -2.3391    1.0580    0.0308 H         1 <0>         0.0921
     38 H6         -4.4188   -0.1131   -0.8353 H         1 <0>         0.1000
     39 H7         -3.0328   -0.1781   -1.9517 H         1 <0>         0.0554
     40 H8         -2.3332   -3.6540   -1.2154 H         1 <0>         0.1032
     41 H9         -1.8155   -2.2449   -2.1736 H         1 <0>         0.0575
     42 H10        -0.2205   -2.5390   -0.3648 H         1 <0>         0.0946
     43 H11        -1.5336   -2.6218    0.8379 H         1 <0>         0.0649
     44 H12         5.6076    0.7312   -0.0208 H         1 <0>         0.1602
     45 H13         5.2691    3.3117   -0.4667 H         1 <0>         0.1101
     46 H14         3.5950    3.8971   -0.6189 H         1 <0>         0.1041
     47 H15         4.4785    5.8693    6.9236 H         1 <0>         0.1711
     48 H16         5.2039   -1.7850    0.4285 H         1 <0>         0.0870
     49 H17         3.5285   -2.3631    0.5926 H         1 <0>         0.0820
@<TRIPOS>BOND
     1    1    6 ar
     2    1    2 ar
     3    1   33 1
     4    2    3 ar
     5    2   34 1
     6    3   15 1
     7    3    4 ar
     8    4    5 ar
     9    4   13 1
    10    5    6 ar
    11    5   35 1
    12    6    7 1
    13    7   12 1
    14    7    8 1
    15    8    9 1
    16    8   36 1
    17    8   37 1
    18    9   10 1
    19    9   38 1
    20    9   39 1
    21   10   11 1
    22   11   12 1
    23   11   40 1
    24   11   41 1
    25   12   42 1
    26   12   43 1
    27   13   14 1
    28   13   29 1
    29   14   15 2
    30   14   44 1
    31   15   16 1
    32   16   17 1
    33   16   45 1
    34   16   46 1
    35   17   25 1
    36   17   18 2
    37   18   19 1
    38   19   24 ar
    39   19   20 ar
    40   20   21 ar
    41   20   28 1
    42   21   22 ar
    43   21   27 1
    44   22   23 ar
    45   22   47 1
    46   23   24 ar
    47   23   26 1
    48   24   25 1
    49   29   30 1
    50   29   48 1
    51   29   49 1
    52   30   31 2
    53   30   32 1
@<TRIPOS>MOLECULE
CHEMBL433898
   32    33     0     0     0
SMALL
USER_CHARGES

@<TRIPOS>ATOM
      1 C1         -0.0161    1.3332    0.0094 C.2       1 <0>        -0.1443
      2 C2          0.0021   -0.0041    0.0020 C.2       1 <0>         0.0465
      3 C3         -1.1594   -0.9199    0.0017 C.2       1 <0>         0.5584
      4 O1         -2.3352   -0.6101    0.0081 O.2       1 <0>        -0.4675
      5 N1         -0.6495   -2.1683   -0.0077 N.am      1 <0>        -0.5390
      6 C4          0.6909   -2.1145   -0.0130 C.2       1 <0>         0.7092
      7 O2          1.4171   -3.0896   -0.0217 O.2       1 <0>        -0.5210
      8 N2          1.1273   -0.8428   -0.0132 N.am      1 <0>        -0.5723
      9 C5          2.5269   -0.4101   -0.0245 C.3       1 <0>         0.1791
     10 C6          3.0205   -0.2691    1.3923 C.ar      1 <0>        -0.1117
     11 C7          2.8882    0.9379    2.0536 C.ar      1 <0>        -0.0501
     12 C8          3.3410    1.0672    3.3530 C.ar      1 <0>        -0.1198
     13 C9          3.9257   -0.0105    3.9918 C.ar      1 <0>        -0.0512
     14 C10         4.0572   -1.2174    3.3311 C.ar      1 <0>        -0.0509
     15 C11         3.6004   -1.3479    2.0327 C.ar      1 <0>        -0.0292
     16 N3          4.6837   -2.3710    4.0148 N.pl3     1 <0>         0.0329
     17 O3          5.0805   -2.2577    5.1512 O.2       1 <0>        -0.1629
     18 O4          4.7987   -3.4267    3.4368 O.3       1 <0>        -0.1498
     19 C12        -1.4419   -3.4006   -0.0106 C.3       1 <0>         0.0487
     20 C13        -1.7199   -3.8156   -1.4324 C.2       1 <0>         0.4889
     21 O5         -1.2955   -3.1443   -2.3575 O.co2     1 <0>        -0.6826
     22 O6         -2.3692   -4.8226   -1.6577 O.co2     1 <0>        -0.6864
     23 H1          0.9118    1.8859    0.0035 H         1 <0>         0.1202
     24 H2         -0.9586    1.8605    0.0167 H         1 <0>         0.1384
     25 H3          3.1318   -1.1503   -0.5481 H         1 <0>         0.1109
     26 H4          2.6062    0.5502   -0.5342 H         1 <0>         0.1078
     27 H5          2.4314    1.7798    1.5546 H         1 <0>         0.1443
     28 H6          3.2383    2.0102    3.8693 H         1 <0>         0.1495
     29 H7          4.2802    0.0907    5.0070 H         1 <0>         0.1533
     30 H8          3.6997   -2.2920    1.5177 H         1 <0>         0.1605
     31 H9         -0.8875   -4.1902    0.4966 H         1 <0>         0.0953
     32 H10        -2.3847   -3.2275    0.5083 H         1 <0>         0.0947
@<TRIPOS>BOND
     1    1    2 2
     2    1   23 1
     3    1   24 1
     4    2    8 1
     5    2    3 1
     6    3    4 2
     7    3    5 am
     8    5    6 am
     9    5   19 1
    10    6    7 2
    11    6    8 am
    12    8    9 1
    13    9   10 1
    14    9   25 1
    15    9   26 1
    16   10   15 ar
    17   10   11 ar
    18   11   12 ar
    19   11   27 1
    20   12   13 ar
    21   12   28 1
    22   13   14 ar
    23   13   29 1
    24   14   15 ar
    25   14   16 1
    26   15   30 1
    27   16   17 2
    28   16   18 1
    29   19   20 1
    30   19   31 1
    31   19   32 1
    32   20   21 2
    33   20   22 1
@<TRIPOS>MOLECULE
CHEMBL357206
   39    42     0     0     0
SMALL
USER_CHARGES

@<TRIPOS>ATOM
      1 C1         -0.0165    1.3627    0.0095 C.ar      1 <0>        -0.0911
      2 C2          1.1654    2.0924    0.0022 C.ar      1 <0>        -0.1270
      3 C3          2.3861    1.4540   -0.0134 C.ar      1 <0>        -0.0552
      4 C4          2.4294    0.0605   -0.0213 C.ar      1 <0>        -0.1336
      5 C5          1.2244   -0.6786   -0.0133 C.ar      1 <0>        -0.0428
      6 C6          0.0021   -0.0041    0.0020 C.ar      1 <0>        -0.0994
      7 C7          1.3000   -2.1396   -0.0224 C.2       1 <0>         0.1286
      8 N1          2.4575   -2.7306   -0.0371 N.2       1 <0>        -0.1212
      9 N2          3.6626   -2.0276   -0.0452 N.am      1 <0>        -0.4449
     10 C8          3.6977   -0.6787   -0.0384 C.2       1 <0>         0.5200
     11 O1          4.7616   -0.0856   -0.0461 O.2       1 <0>        -0.5309
     12 C9          4.9232   -2.7737   -0.0618 C.3       1 <0>         0.2244
     13 C10         5.3696   -3.0372    1.3533 C.2       1 <0>         0.2750
     14 N3          5.0610   -4.0823    2.0667 N.2       1 <0>        -0.4732
     15 C11         5.6287   -3.9939    3.2827 C.2       1 <0>         0.2961
     16 N4          6.3094   -2.8767    3.3468 N.2       1 <0>        -0.3349
     17 O2          6.1553   -2.2390    2.0876 O.3       1 <0>        -0.0876
     18 C12         5.5042   -4.9957    4.3715 C.ar      1 <0>         0.1868
     19 C13         6.1429   -4.7750    5.5891 C.ar      1 <0>        -0.1313
     20 C14         6.0173   -5.7179    6.5953 C.ar      1 <0>        -0.0791
     21 C15         5.2561   -6.8513    6.3492 C.ar      1 <0>        -0.1540
     22 C16         4.6493   -7.0058    5.1159 C.ar      1 <0>         0.1068
     23 N5          4.7812   -6.0905    4.1781 N.ar      1 <0>        -0.4282
     24 C17         0.0356   -2.9595   -0.0143 C.3       1 <0>        -0.1339
     25 C18         0.3870   -4.4249   -0.0262 C.2       1 <0>         0.4875
     26 O3          1.5559   -4.7714   -0.0401 O.co2     1 <0>        -0.6438
     27 O4         -0.4975   -5.2640   -0.0221 O.co2     1 <0>        -0.7055
     28 H1         -0.9631    1.8823    0.0259 H         1 <0>         0.1308
     29 H2          1.1269    3.1717    0.0083 H         1 <0>         0.1307
     30 H3          3.3010    2.0277   -0.0197 H         1 <0>         0.1387
     31 H4         -0.9242   -0.5594    0.0075 H         1 <0>         0.1413
     32 H5          4.7775   -3.7219   -0.5793 H         1 <0>         0.1498
     33 H6          5.6841   -2.1901   -0.5800 H         1 <0>         0.1304
     34 H7          6.7282   -3.8811    5.7462 H         1 <0>         0.1432
     35 H8          6.5014   -5.5744    7.5500 H         1 <0>         0.1433
     36 H9          5.1387   -7.6057    7.1131 H         1 <0>         0.1428
     37 H10         4.0562   -7.8870    4.9206 H         1 <0>         0.1683
     38 H11        -0.5398   -2.7311    0.8829 H         1 <0>         0.0857
     39 H12        -0.5578   -2.7210   -0.8970 H         1 <0>         0.0875
@<TRIPOS>BOND
     1    1    6 ar
     2    1    2 ar
     3    1   28 1
     4    2    3 ar
     5    2   29 1
     6    3    4 ar
     7    3   30 1
     8    4   10 1
     9    4    5 ar
    10    5    6 ar
    11    5    7 1
    12    6   31 1
    13    7    8 2
    14    7   24 1
    15    8    9 1
    16    9   10 am
    17    9   12 1
    18   10   11 2
    19   12   13 1
    20   12   32 1
    21   12   33 1
    22   13   17 1
    23   13   14 2
    24   14   15 1
    25   15   16 2
    26   15   18 1
    27   16   17 1
    28   18   23 ar
    29   18   19 ar
    30   19   20 ar
    31   19   34 1
    32   20   21 ar
    33   20   35 1
    34   21   22 ar
    35   21   36 1
    36   22   23 ar
    37   22   37 1
    38   24   25 1
    39   24   38 1
    40   24   39 1
    41   25   26 2
    42   25   27 1
@<TRIPOS>MOLECULE
CHEMBL140012
   39    41     0     0     0
SMALL
USER_CHARGES

@<TRIPOS>ATOM
      1 C1         -1.2456   -0.7580    0.1874 C.ar      1 <0>        -0.0931
      2 C2         -0.3496    0.2967    0.3058 C.ar      1 <0>        -0.1288
      3 C3          1.0093    0.0705    0.2882 C.ar      1 <0>        -0.0567
      4 C4          1.4842   -1.2332    0.1503 C.ar      1 <0>        -0.1272
      5 C5          0.5690   -2.3038    0.0305 C.ar      1 <0>        -0.0385
      6 C6         -0.8026   -2.0439    0.0512 C.ar      1 <0>        -0.1014
      7 C7          1.0956   -3.6612   -0.1134 C.2       1 <0>         0.1268
      8 N1          2.3796   -3.8621   -0.1287 N.2       1 <0>        -0.1203
      9 N2          3.3060   -2.8255   -0.0125 N.am      1 <0>        -0.4252
     10 C8          2.9196   -1.5399    0.1239 C.2       1 <0>         0.5344
     11 O1          3.7462   -0.6507    0.2233 O.2       1 <0>        -0.5457
     12 C9          4.7364   -3.1412   -0.0394 C.3       1 <0>         0.1534
     13 C10         5.2198   -3.4015    1.3640 C.2       1 <0>         0.2438
     14 N3          6.5123   -3.7134    1.5846 N.pl3     1 <0>        -0.6117
     15 C11         6.9809   -3.8674    2.8931 C.ar      1 <0>         0.1310
     16 C12         6.2510   -4.6127    3.8106 C.ar      1 <0>        -0.0659
     17 C13         6.7159   -4.7633    5.1021 C.ar      1 <0>        -0.1005
     18 C14         7.9068   -4.1729    5.4835 C.ar      1 <0>        -0.1052
     19 C15         8.6368   -3.4298    4.5725 C.ar      1 <0>        -0.0332
     20 C16         8.1796   -3.2806    3.2764 C.ar      1 <0>        -0.1148
     21 Cl1        10.1313   -2.6904    5.0555 Cl        1 <0>        -0.0722
     22 S1          4.1993   -3.3076    2.5915 S.2       1 <0>        -0.3748
     23 C17         0.1490   -4.8266   -0.2436 C.3       1 <0>        -0.1314
     24 C18         0.9391   -6.1029   -0.3775 C.2       1 <0>         0.4914
     25 O2          2.1578   -6.0692   -0.3682 O.co2     1 <0>        -0.6554
     26 O3          0.3596   -7.1691   -0.4953 O.co2     1 <0>        -0.7057
     27 H1         -2.3071   -0.5598    0.2077 H         1 <0>         0.1290
     28 H2         -0.7220    1.3048    0.4124 H         1 <0>         0.1287
     29 H3          1.7003    0.8953    0.3800 H         1 <0>         0.1358
     30 H4         -1.5101   -2.8548   -0.0402 H         1 <0>         0.1396
     31 H5          4.9012   -4.0284   -0.6508 H         1 <0>         0.1316
     32 H6          5.2861   -2.3007   -0.4630 H         1 <0>         0.1219
     33 H7          5.3204   -5.0736    3.5141 H         1 <0>         0.1508
     34 H8          6.1485   -5.3426    5.8155 H         1 <0>         0.1391
     35 H9          8.2678   -4.2916    6.4944 H         1 <0>         0.1343
     36 H10         8.7517   -2.7047    2.5641 H         1 <0>         0.1343
     37 H11        -0.4831   -4.8819    0.6427 H         1 <0>         0.0865
     38 H12        -0.4749   -4.6911   -1.1270 H         1 <0>         0.0853
     39 H13         7.1175   -3.8310    0.8357 H         1 <0>         0.4100
@<TRIPOS>BOND
     1    1    6 ar
     2    1    2 ar
     3    1   27 1
     4    2    3 ar
     5    2   28 1
     6    3    4 ar
     7    3   29 1
     8    4   10 1
     9    4    5 ar
    10    5    6 ar
    11    5    7 1
    12    6   30 1
    13    7    8 2
    14    7   23 1
    15    8    9 1
    16    9   10 am
    17    9   12 1
    18   10   11 2
    19   12   13 1
    20   12   31 1
    21   12   32 1
    22   13   14 1
    23   13   22 2
    24   14   15 1
    25   14   39 1
    26   15   20 ar
    27   15   16 ar
    28   16   17 ar
    29   16   33 1
    30   17   18 ar
    31   17   34 1
    32   18   19 ar
    33   18   35 1
    34   19   20 ar
    35   19   21 1
    36   20   36 1
    37   23   24 1
    38   23   37 1
    39   23   38 1
    40   24   25 2
    41   24   26 1
@<TRIPOS>MOLECULE
CHEMBL19781
   36    38     0     0     0
SMALL
USER_CHARGES

@<TRIPOS>ATOM
      1 C1         -0.0167    1.3782    0.0096 C.ar      1 <0>        -0.0981
      2 C2          1.1706    2.0858    0.0021 C.ar      1 <0>        -0.1035
      3 C3          2.3780    1.4104   -0.0130 C.ar      1 <0>        -0.0340
      4 C4          2.3961    0.0270   -0.0206 C.ar      1 <0>        -0.1049
      5 C5          1.2082   -0.6795   -0.0130 C.ar      1 <0>        -0.1041
      6 C6          0.0021   -0.0041    0.0020 C.ar      1 <0>        -0.0677
      7 C7         -1.2928   -0.7750    0.0107 C.3       1 <0>        -0.4277
      8 S1         -1.8293   -1.0751   -1.6960 S.o       1 <0>         1.3396
      9 O1         -2.2295    0.1524   -2.2895 O.2       1 <0>        -0.8210
     10 C8         -3.3347   -1.9732   -1.5179 C.ar      1 <0>        -0.4431
     11 C9         -4.5451   -1.3056   -1.5460 C.ar      1 <0>        -0.0346
     12 C10        -5.7261   -2.0094   -1.4059 C.ar      1 <0>        -0.1103
     13 C11        -5.6972   -3.3826   -1.2380 C.ar      1 <0>         0.0012
     14 C12        -4.4858   -4.0500   -1.2104 C.ar      1 <0>        -0.1070
     15 C13        -3.3054   -3.3456   -1.3558 C.ar      1 <0>        -0.0202
     16 C14        -1.9859   -4.0732   -1.3314 C.3       1 <0>         0.1206
     17 C15        -1.5356   -4.4083   -2.7395 C.2       1 <0>         0.5330
     18 O2         -1.2876   -3.6286   -3.6341 O.2       1 <0>        -0.4435
     19 N1         -1.4676   -5.7534   -2.7899 N.am      1 <0>        -0.6742
     20 C16        -1.8087   -6.3088   -1.6215 C.2       1 <0>         0.7057
     21 O3         -1.8235   -7.5076   -1.4221 O.2       1 <0>        -0.5269
     22 N2         -2.1331   -5.3921   -0.6919 N.am      1 <0>        -0.7177
     23 Cl1        -7.1803   -4.2673   -1.0614 Cl        1 <0>        -0.0483
     24 Cl2         3.8696    2.2984   -0.0231 Cl        1 <0>        -0.0647
     25 H1         -0.9592    1.9053    0.0259 H         1 <0>         0.1319
     26 H2          1.1558    3.1656    0.0076 H         1 <0>         0.1369
     27 H3          3.3383   -0.5007   -0.0327 H         1 <0>         0.1397
     28 H4          1.2222   -1.7594   -0.0193 H         1 <0>         0.1398
     29 H5         -1.1447   -1.7283    0.5180 H         1 <0>         0.1283
     30 H6         -2.0551   -0.1989    0.5352 H         1 <0>         0.1059
     31 H7         -4.5676   -0.2338   -1.6771 H         1 <0>         0.1462
     32 H8         -6.6715   -1.4877   -1.4272 H         1 <0>         0.1441
     33 H9         -4.4626   -5.1218   -1.0793 H         1 <0>         0.1451
     34 H10        -1.2311   -3.4792   -0.8161 H         1 <0>         0.1452
     35 H11        -1.2043   -6.2566   -3.5762 H         1 <0>         0.4406
     36 H12        -2.4097   -5.5656    0.2215 H         1 <0>         0.4477
@<TRIPOS>BOND
     1    1    6 ar
     2    1    2 ar
     3    1   25 1
     4    2    3 ar
     5    2   26 1
     6    3    4 ar
     7    3   24 1
     8    4    5 ar
     9    4   27 1
    10    5    6 ar
    11    5   28 1
    12    6    7 1
    13    7    8 1
    14    7   29 1
    15    7   30 1
    16    8    9 2
    17    8   10 1
    18   10   15 ar
    19   10   11 ar
    20   11   12 ar
    21   11   31 1
    22   12   13 ar
    23   12   32 1
    24   13   14 ar
    25   13   23 1
    26   14   15 ar
    27   14   33 1
    28   15   16 1
    29   16   22 1
    30   16   17 1
    31   16   34 1
    32   17   18 2
    33   17   19 am
    34   19   20 am
    35   19   35 1
    36   20   21 2
    37   20   22 am
    38   22   36 1
@<TRIPOS>MOLECULE
CHEMBL19781__1
   36    38     0     0     0
SMALL
USER_CHARGES

@<TRIPOS>ATOM
      1 C1         -0.2390    1.3836    0.5643 C.ar      1 <0>        -0.0983
      2 C2          0.9343    2.1017    0.6984 C.ar      1 <0>        -0.1035
      3 C3          2.1446    1.4378    0.7915 C.ar      1 <0>        -0.0329
      4 C4          2.1795    0.0553    0.7502 C.ar      1 <0>        -0.1047
      5 C5          1.0055   -0.6617    0.6161 C.ar      1 <0>        -0.1027
      6 C6         -0.2035    0.0023    0.5231 C.ar      1 <0>        -0.0693
      7 C7         -1.4832   -0.7801    0.3773 C.3       1 <0>        -0.4180
      8 S1         -1.8363   -1.0391   -1.3831 S.o       1 <0>         1.3185
      9 O1         -2.3014    0.1751   -1.9565 O.2       1 <0>        -0.8219
     10 C8         -3.2563   -2.0823   -1.3840 C.ar      1 <0>        -0.4454
     11 C9         -4.5199   -1.5294   -1.4817 C.ar      1 <0>        -0.0343
     12 C10        -5.6340   -2.3470   -1.4820 C.ar      1 <0>        -0.1092
     13 C11        -5.4848   -3.7193   -1.3849 C.ar      1 <0>         0.0051
     14 C12        -4.2204   -4.2718   -1.2876 C.ar      1 <0>        -0.1052
     15 C13        -3.1064   -3.4533   -1.2926 C.ar      1 <0>        -0.0144
     16 C14        -1.7286   -4.0554   -1.1923 C.3       1 <0>         0.1191
     17 C15        -1.8139   -5.5254   -0.8321 C.2       1 <0>         0.5344
     18 O2         -2.2886   -6.0063    0.1744 O.2       1 <0>        -0.4471
     19 N1         -1.2531   -6.1864   -1.8640 N.am      1 <0>        -0.6760
     20 C16        -0.8297   -5.3472   -2.8160 C.2       1 <0>         0.7084
     21 O3         -0.2901   -5.7081   -3.8435 O.2       1 <0>        -0.5252
     22 N2         -1.0676   -4.0593   -2.5087 N.am      1 <0>        -0.7186
     23 Cl1        -6.8839   -4.7470   -1.3846 Cl        1 <0>        -0.0466
     24 Cl2         3.6187    2.3390    0.9594 Cl        1 <0>        -0.0636
     25 H1         -1.1842    1.9016    0.4961 H         1 <0>         0.1324
     26 H2          0.9065    3.1809    0.7302 H         1 <0>         0.1373
     27 H3          3.1239   -0.4635    0.8225 H         1 <0>         0.1401
     28 H4          1.0327   -1.7408    0.5835 H         1 <0>         0.1403
     29 H5         -1.3774   -1.7453    0.8725 H         1 <0>         0.1303
     30 H6         -2.3024   -0.2251    0.8344 H         1 <0>         0.1079
     31 H7         -4.6362   -0.4584   -1.5575 H         1 <0>         0.1461
     32 H8         -6.6209   -1.9150   -1.5577 H         1 <0>         0.1449
     33 H9         -4.1033   -5.3428   -1.2117 H         1 <0>         0.1412
     34 H10        -1.1268   -3.5137   -0.4626 H         1 <0>         0.1473
     35 H11        -1.1666   -7.1514   -1.9104 H         1 <0>         0.4397
     36 H12        -0.8471   -3.2843   -3.0488 H         1 <0>         0.4440
@<TRIPOS>BOND
     1    1    6 ar
     2    1    2 ar
     3    1   25 1
     4    2    3 ar
     5    2   26 1
     6    3    4 ar
     7    3   24 1
     8    4    5 ar
     9    4   27 1
    10    5    6 ar
    11    5   28 1
    12    6    7 1
    13    7    8 1
    14    7   29 1
    15    7   30 1
    16    8    9 2
    17    8   10 1
    18   10   15 ar
    19   10   11 ar
    20   11   12 ar
    21   11   31 1
    22   12   13 ar
    23   12   32 1
    24   13   14 ar
    25   13   23 1
    26   14   15 ar
    27   14   33 1
    28   15   16 1
    29   16   22 1
    30   16   17 1
    31   16   34 1
    32   17   18 2
    33   17   19 am
    34   19   20 am
    35   19   35 1
    36   20   21 2
    37   20   22 am
    38   22   36 1
@<TRIPOS>MOLECULE
CHEMBL19781__2
   36    38     0     0     0
SMALL
USER_CHARGES

@<TRIPOS>ATOM
      1 C1         -0.0167    1.3782    0.0096 C.ar      1 <0>        -0.1022
      2 C2          1.1706    2.0858    0.0021 C.ar      1 <0>        -0.1056
      3 C3          2.3780    1.4104   -0.0130 C.ar      1 <0>        -0.0345
      4 C4          2.3961    0.0270   -0.0206 C.ar      1 <0>        -0.1042
      5 C5          1.2082   -0.6795   -0.0130 C.ar      1 <0>        -0.0987
      6 C6          0.0021   -0.0041    0.0020 C.ar      1 <0>        -0.0651
      7 C7         -1.2928   -0.7750    0.0107 C.3       1 <0>        -0.4233
      8 S1         -1.8293   -1.0751   -1.6960 S.o       1 <0>         1.3264
      9 O1         -0.9470   -2.0020   -2.3137 O.2       1 <0>        -0.7978
     10 C8         -3.3347   -1.9732   -1.5179 C.ar      1 <0>        -0.4444
     11 C9         -4.5451   -1.3056   -1.5460 C.ar      1 <0>        -0.0233
     12 C10        -5.7261   -2.0094   -1.4059 C.ar      1 <0>        -0.1159
     13 C11        -5.6971   -3.3826   -1.2380 C.ar      1 <0>         0.0006
     14 C12        -4.4858   -4.0500   -1.2104 C.ar      1 <0>        -0.1102
     15 C13        -3.3054   -3.3456   -1.3558 C.ar      1 <0>        -0.0294
     16 C14        -1.9859   -4.0732   -1.3314 C.3       1 <0>         0.1302
     17 C15        -1.5356   -4.4083   -2.7395 C.2       1 <0>         0.5364
     18 O2         -1.2876   -3.6286   -3.6341 O.2       1 <0>        -0.3994
     19 N1         -1.4676   -5.7534   -2.7899 N.am      1 <0>        -0.6852
     20 C16        -1.8087   -6.3088   -1.6215 C.2       1 <0>         0.7063
     21 O3         -1.8235   -7.5076   -1.4221 O.2       1 <0>        -0.5390
     22 N2         -2.1331   -5.3921   -0.6919 N.am      1 <0>        -0.7265
     23 Cl1        -7.1803   -4.2673   -1.0614 Cl        1 <0>        -0.0514
     24 Cl2         3.8696    2.2984   -0.0231 Cl        1 <0>        -0.0659
     25 H1         -0.9592    1.9053    0.0259 H         1 <0>         0.1415
     26 H2          1.1558    3.1656    0.0076 H         1 <0>         0.1387
     27 H3          3.3383   -0.5007   -0.0327 H         1 <0>         0.1352
     28 H4          1.2222   -1.7594   -0.0193 H         1 <0>         0.1287
     29 H5         -1.1447   -1.7283    0.5180 H         1 <0>         0.0967
     30 H6         -2.0551   -0.1989    0.5352 H         1 <0>         0.1310
     31 H7         -4.5676   -0.2338   -1.6771 H         1 <0>         0.1544
     32 H8         -6.6715   -1.4877   -1.4272 H         1 <0>         0.1463
     33 H9         -4.4626   -5.1218   -1.0793 H         1 <0>         0.1390
     34 H10        -1.2311   -3.4792   -0.8161 H         1 <0>         0.1344
     35 H11        -1.2043   -6.2566   -3.5762 H         1 <0>         0.4347
     36 H12        -2.4097   -5.5656    0.2215 H         1 <0>         0.4415
@<TRIPOS>BOND
     1    1    6 ar
     2    1    2 ar
     3    1   25 1
     4    2    3 ar
     5    2   26 1
     6    3    4 ar
     7    3   24 1
     8    4    5 ar
     9    4   27 1
    10    5    6 ar
    11    5   28 1
    12    6    7 1
    13    7    8 1
    14    7   29 1
    15    7   30 1
    16    8    9 2
    17    8   10 1
    18   10   15 ar
    19   10   11 ar
    20   11   12 ar
    21   11   31 1
    22   12   13 ar
    23   12   32 1
    24   13   14 ar
    25   13   23 1
    26   14   15 ar
    27   14   33 1
    28   15   16 1
    29   16   22 1
    30   16   17 1
    31   16   34 1
    32   17   18 2
    33   17   19 am
    34   19   20 am
    35   19   35 1
    36   20   21 2
    37   20   22 am
    38   22   36 1
@<TRIPOS>MOLECULE
CHEMBL19781__3
   36    38     0     0     0
SMALL
USER_CHARGES

@<TRIPOS>ATOM
      1 C1          1.1608   -1.5095   -3.2505 C.ar      1 <0>        -0.1039
      2 C2          2.4471   -1.0246   -3.3942 C.ar      1 <0>        -0.1045
      3 C3          2.6538    0.3124   -3.6837 C.ar      1 <0>        -0.0338
      4 C4          1.5726    1.1633   -3.8292 C.ar      1 <0>        -0.1031
      5 C5          0.2868    0.6773   -3.6853 C.ar      1 <0>        -0.0993
      6 C6          0.0809   -0.6587   -3.3959 C.ar      1 <0>        -0.0671
      7 C7         -1.3214   -1.1881   -3.2395 C.3       1 <0>        -0.4264
      8 S1         -1.8309   -1.0471   -1.5042 S.o       1 <0>         1.3357
      9 O1         -2.1150    0.3122   -1.2030 O.2       1 <0>        -0.8212
     10 C8         -3.4074   -1.8326   -1.4577 C.ar      1 <0>        -0.4419
     11 C9         -4.5593   -1.0781   -1.5831 C.ar      1 <0>        -0.0346
     12 C10        -5.7961   -1.6935   -1.5462 C.ar      1 <0>        -0.1096
     13 C11        -5.8816   -3.0651   -1.3842 C.ar      1 <0>         0.0014
     14 C12        -4.7288   -3.8194   -1.2593 C.ar      1 <0>        -0.1060
     15 C13        -3.4920   -3.2033   -1.3015 C.ar      1 <0>        -0.0199
     16 C14        -2.2359   -4.0256   -1.1711 C.3       1 <0>         0.1213
     17 C15        -1.8511   -4.1840    0.2865 C.2       1 <0>         0.5329
     18 O2         -1.5650   -3.3026    1.0683 O.2       1 <0>        -0.4426
     19 N1         -1.8939   -5.5083    0.5328 N.am      1 <0>        -0.6748
     20 C16        -2.2486   -6.2014   -0.5553 C.2       1 <0>         0.7054
     21 O3         -2.3555   -7.4118   -0.5801 O.2       1 <0>        -0.5269
     22 N2         -2.4731   -5.4088   -1.6189 N.am      1 <0>        -0.7173
     23 Cl1        -7.4349   -3.8388   -1.3373 Cl        1 <0>        -0.0481
     24 Cl2         4.2692    0.9222   -3.8639 Cl        1 <0>        -0.0644
     25 H1          0.9992   -2.5541   -3.0289 H         1 <0>         0.1395
     26 H2          3.2907   -1.6892   -3.2802 H         1 <0>         0.1399
     27 H3          1.7334    2.2071   -4.0549 H         1 <0>         0.1372
     28 H4         -0.5573    1.3415   -3.7985 H         1 <0>         0.1324
     29 H5         -2.0002   -0.6092   -3.8657 H         1 <0>         0.1063
     30 H6         -1.3506   -2.2346   -3.5429 H         1 <0>         0.1279
     31 H7         -4.4925   -0.0076   -1.7095 H         1 <0>         0.1461
     32 H8         -6.6958   -1.1040   -1.6435 H         1 <0>         0.1443
     33 H9         -4.7949   -4.8899   -1.1328 H         1 <0>         0.1440
     34 H10        -1.4222   -3.5732   -1.7380 H         1 <0>         0.1431
     35 H11        -1.6920   -5.9094    1.3925 H         1 <0>         0.4404
     36 H12        -2.7395   -5.6928   -2.5073 H         1 <0>         0.4476
@<TRIPOS>BOND
     1    1    6 ar
     2    1    2 ar
     3    1   25 1
     4    2    3 ar
     5    2   26 1
     6    3    4 ar
     7    3   24 1
     8    4    5 ar
     9    4   27 1
    10    5    6 ar
    11    5   28 1
    12    6    7 1
    13    7    8 1
    14    7   29 1
    15    7   30 1
    16    8    9 2
    17    8   10 1
    18   10   15 ar
    19   10   11 ar
    20   11   12 ar
    21   11   31 1
    22   12   13 ar
    23   12   32 1
    24   13   14 ar
    25   13   23 1
    26   14   15 ar
    27   14   33 1
    28   15   16 1
    29   16   22 1
    30   16   17 1
    31   16   34 1
    32   17   18 2
    33   17   19 am
    34   19   20 am
    35   19   35 1
    36   20   21 2
    37   20   22 am
    38   22   36 1
@<TRIPOS>MOLECULE
CHEMBL19649
   37    39     0     0     0
SMALL
USER_CHARGES

@<TRIPOS>ATOM
      1 C1         -0.8084    1.4807    1.3025 C.ar      1 <0>        -0.0890
      2 C2          0.2805    2.2786    1.5992 C.ar      1 <0>        -0.1065
      3 C3          1.5384    1.7152    1.7189 C.ar      1 <0>        -0.0222
      4 C4          1.7056    0.3534    1.5415 C.ar      1 <0>        -0.1058
      5 C5          0.6160   -0.4435    1.2449 C.ar      1 <0>        -0.0870
      6 C6         -0.6407    0.1200    1.1253 C.ar      1 <0>        -0.0966
      7 C7         -1.8284   -0.7495    0.8023 C.3       1 <0>        -0.5717
      8 S1         -2.0343   -0.8477   -0.9973 S.o2      1 <0>         2.4752
      9 O1         -2.5342    0.3836   -1.5006 O.2       1 <0>        -0.9181
     10 O2         -0.8975   -1.4632   -1.5872 O.2       1 <0>        -0.8935
     11 C8         -3.3460   -1.9987   -1.2409 C.ar      1 <0>        -0.6398
     12 C9         -4.5596   -1.5672   -1.7436 C.ar      1 <0>        -0.0022
     13 C10        -5.5888   -2.4693   -1.9345 C.ar      1 <0>        -0.1150
     14 C11        -5.4046   -3.8049   -1.6228 C.ar      1 <0>         0.0182
     15 C12        -4.1900   -4.2361   -1.1203 C.ar      1 <0>        -0.1090
     16 C13        -3.1595   -3.3335   -0.9347 C.ar      1 <0>        -0.0024
     17 C14        -1.8344   -3.8041   -0.3927 C.3       1 <0>         0.1113
     18 C15        -0.9732   -4.3686   -1.5051 C.2       1 <0>         0.5297
     19 O3         -0.5624   -3.7812   -2.4828 O.2       1 <0>        -0.4020
     20 N1         -0.7587   -5.6589   -1.1807 N.am      1 <0>        -0.6798
     21 C16        -1.3584   -5.9848   -0.0300 C.2       1 <0>         0.7067
     22 O4         -1.3082   -7.0923    0.4681 O.2       1 <0>        -0.5288
     23 N2         -2.0228   -4.9494    0.5144 N.am      1 <0>        -0.7199
     24 Cl1        -6.6972   -4.9387   -1.8617 Cl        1 <0>        -0.0398
     25 Cl2         2.9066    2.7169    2.0910 Cl        1 <0>        -0.0576
     26 H1         -1.7911    1.9197    1.2134 H         1 <0>         0.1437
     27 H2          0.1494    3.3417    1.7372 H         1 <0>         0.1437
     28 H3          2.6874   -0.0869    1.6345 H         1 <0>         0.1433
     29 H4          0.7464   -1.5066    1.1060 H         1 <0>         0.1392
     30 H5         -1.6667   -1.7496    1.2045 H         1 <0>         0.1427
     31 H6         -2.7254   -0.3194    1.2477 H         1 <0>         0.1553
     32 H7         -4.7033   -0.5248   -1.9869 H         1 <0>         0.1642
     33 H8         -6.5370   -2.1320   -2.3265 H         1 <0>         0.1532
     34 H9         -4.0456   -5.2783   -0.8769 H         1 <0>         0.1468
     35 H10        -1.3198   -2.9905    0.1186 H         1 <0>         0.1276
     36 H11        -0.2347   -6.2754   -1.7158 H         1 <0>         0.4395
     37 H12        -2.5273   -4.9557    1.3429 H         1 <0>         0.4462
@<TRIPOS>BOND
     1    1    6 ar
     2    1    2 ar
     3    1   26 1
     4    2    3 ar
     5    2   27 1
     6    3    4 ar
     7    3   25 1
     8    4    5 ar
     9    4   28 1
    10    5    6 ar
    11    5   29 1
    12    6    7 1
    13    7    8 1
    14    7   30 1
    15    7   31 1
    16    8    9 2
    17    8   10 2
    18    8   11 1
    19   11   16 ar
    20   11   12 ar
    21   12   13 ar
    22   12   32 1
    23   13   14 ar
    24   13   33 1
    25   14   15 ar
    26   14   24 1
    27   15   16 ar
    28   15   34 1
    29   16   17 1
    30   17   23 1
    31   17   18 1
    32   17   35 1
    33   18   19 2
    34   18   20 am
    35   20   21 am
    36   20   36 1
    37   21   22 2
    38   21   23 am
    39   23   37 1
@<TRIPOS>MOLECULE
CHEMBL19649__1
   37    39     0     0     0
SMALL
USER_CHARGES

@<TRIPOS>ATOM
      1 C1          1.5792   -1.7373   -2.2761 C.ar      1 <0>        -0.0908
      2 C2          2.8010   -1.1277   -2.4906 C.ar      1 <0>        -0.1064
      3 C3          2.9546   -0.2360   -3.5372 C.ar      1 <0>        -0.0223
      4 C4          1.8851    0.0449   -4.3686 C.ar      1 <0>        -0.1066
      5 C5          0.6638   -0.5653   -4.1532 C.ar      1 <0>        -0.0850
      6 C6          0.5108   -1.4562   -3.1072 C.ar      1 <0>        -0.0965
      7 C7         -0.8209   -2.1215   -2.8731 C.3       1 <0>        -0.5717
      8 S1         -1.8170   -1.1024   -1.7507 S.o2      1 <0>         2.4753
      9 O1         -1.3064   -1.1896   -0.4275 O.2       1 <0>        -0.8948
     10 O2         -2.0825    0.1617   -2.3429 O.2       1 <0>        -0.9167
     11 C8         -3.3843   -1.9045   -1.6815 C.ar      1 <0>        -0.6398
     12 C9         -4.4954   -1.2997   -2.2395 C.ar      1 <0>        -0.0024
     13 C10        -5.7250   -1.9280   -2.1852 C.ar      1 <0>        -0.1150
     14 C11        -5.8440   -3.1631   -1.5725 C.ar      1 <0>         0.0182
     15 C12        -4.7320   -3.7679   -1.0148 C.ar      1 <0>        -0.1089
     16 C13        -3.5015   -3.1407   -1.0744 C.ar      1 <0>        -0.0023
     17 C14        -2.2888   -3.8021   -0.4718 C.3       1 <0>         0.1115
     18 C15        -2.2232   -3.5383    1.0194 C.2       1 <0>         0.5295
     19 O3         -2.1266   -2.4621    1.5691 O.2       1 <0>        -0.4023
     20 N1         -2.2954   -4.7489    1.6071 N.am      1 <0>        -0.6797
     21 C16        -2.3964   -5.7307    0.7038 C.2       1 <0>         0.7066
     22 O4         -2.4750   -6.9087    0.9923 O.2       1 <0>        -0.5289
     23 N2         -2.4009   -5.2683   -0.5595 N.am      1 <0>        -0.7197
     24 Cl1        -7.3884   -3.9528   -1.5034 Cl        1 <0>        -0.0398
     25 Cl2         4.4888    0.5305   -3.8068 Cl        1 <0>        -0.0578
     26 H1          1.4603   -2.4367   -1.4619 H         1 <0>         0.1410
     27 H2          3.6354   -1.3471   -1.8410 H         1 <0>         0.1433
     28 H3          2.0043    0.7411   -5.1856 H         1 <0>         0.1436
     29 H4         -0.1713   -0.3459   -4.8019 H         1 <0>         0.1432
     30 H5         -1.3436   -2.2326   -3.8232 H         1 <0>         0.1542
     31 H6         -0.6631   -3.1040   -2.4283 H         1 <0>         0.1437
     32 H7         -4.4023   -0.3357   -2.7177 H         1 <0>         0.1642
     33 H8         -6.5929   -1.4552   -2.6205 H         1 <0>         0.1531
     34 H9         -4.8243   -4.7318   -0.5365 H         1 <0>         0.1467
     35 H10        -1.3803   -3.4567   -0.9651 H         1 <0>         0.1277
     36 H11        -2.2759   -4.8910    2.5664 H         1 <0>         0.4395
     37 H12        -2.4656   -5.7972   -1.3700 H         1 <0>         0.4462
@<TRIPOS>BOND
     1    1    6 ar
     2    1    2 ar
     3    1   26 1
     4    2    3 ar
     5    2   27 1
     6    3    4 ar
     7    3   25 1
     8    4    5 ar
     9    4   28 1
    10    5    6 ar
    11    5   29 1
    12    6    7 1
    13    7    8 1
    14    7   30 1
    15    7   31 1
    16    8    9 2
    17    8   10 2
    18    8   11 1
    19   11   16 ar
    20   11   12 ar
    21   12   13 ar
    22   12   32 1
    23   13   14 ar
    24   13   33 1
    25   14   15 ar
    26   14   24 1
    27   15   16 ar
    28   15   34 1
    29   16   17 1
    30   17   23 1
    31   17   18 1
    32   17   35 1
    33   18   19 2
    34   18   20 am
    35   20   21 am
    36   20   36 1
    37   21   22 2
    38   21   23 am
    39   23   37 1
@<TRIPOS>MOLECULE
CHEMBL164603
   41    42     0     0     0
SMALL
USER_CHARGES

@<TRIPOS>ATOM
      1 C1         -0.0187    1.5258    0.0104 C.3       1 <0>        -0.1424
      2 C2          0.0021   -0.0041    0.0020 C.3       1 <0>        -0.0504
      3 C3         -1.4333   -0.5336    0.0129 C.3       1 <0>        -0.1407
      4 C4          0.7074   -0.4901   -1.2379 C.ar      1 <0>        -0.0818
      5 C5          0.2223   -0.1514   -2.4884 C.ar      1 <0>        -0.1077
      6 C6          0.8672   -0.5937   -3.6284 C.ar      1 <0>        -0.1157
      7 C7          1.9981   -1.3832   -3.5256 C.ar      1 <0>        -0.1139
      8 C8          2.4831   -1.7343   -2.2767 C.ar      1 <0>         0.0961
      9 C9          1.8445   -1.2710   -1.1270 C.ar      1 <0>         0.1062
     10 O1          2.3522   -1.5790    0.0966 O.3       1 <0>        -0.2944
     11 C10         3.0221   -2.8353    0.2232 C.3       1 <0>         0.1230
     12 C11         3.9563   -3.0311   -0.9441 C.2       1 <0>         0.2281
     13 S1          5.3272   -3.8310   -0.7500 S.2       1 <0>        -0.4322
     14 N1          3.6232   -2.5386   -2.1535 N.pl3     1 <0>        -0.4279
     15 C12         4.4562   -2.8273   -3.3235 C.3       1 <0>         0.0160
     16 C13         5.5257   -1.7733   -3.4512 C.2       1 <0>         0.4995
     17 O2          5.5865   -0.8652   -2.6400 O.co2     1 <0>        -0.6739
     18 O3          6.3301   -1.8288   -4.3657 O.co2     1 <0>        -0.6869
     19 C14         1.9890   -3.9636    0.2436 C.3       1 <0>        -0.1152
     20 C15         1.0432   -3.7677    1.4302 C.3       1 <0>        -0.1384
     21 C16         1.1852   -3.9428   -1.0581 C.3       1 <0>        -0.1677
     22 H1          1.0039    1.9031    0.0027 H         1 <0>         0.0576
     23 H2         -0.5459    1.8868   -0.8726 H         1 <0>         0.0554
     24 H3         -0.5289    1.8773    0.9072 H         1 <0>         0.0558
     25 H4          0.5293   -0.3651    0.8851 H         1 <0>         0.0859
     26 H5         -1.9605   -0.1726   -0.8702 H         1 <0>         0.0556
     27 H6         -1.4185   -1.6235    0.0069 H         1 <0>         0.0541
     28 H7         -1.9435   -0.1821    0.9097 H         1 <0>         0.0562
     29 H8         -0.6635    0.4604   -2.5744 H         1 <0>         0.1289
     30 H9          0.4866   -0.3223   -4.6020 H         1 <0>         0.1294
     31 H10         2.5017   -1.7257   -4.4174 H         1 <0>         0.1330
     32 H11         3.5932   -2.8501    1.1515 H         1 <0>         0.1485
     33 H12         4.9223   -3.8055   -3.2052 H         1 <0>         0.1112
     34 H13         3.8362   -2.8263   -4.2200 H         1 <0>         0.0872
     35 H14         2.4993   -4.9219    0.3402 H         1 <0>         0.0931
     36 H15         1.6158   -3.7826    2.3576 H         1 <0>         0.0598
     37 H16         0.5328   -2.8094    1.3337 H         1 <0>         0.0633
     38 H17         0.3071   -4.5716    1.4447 H         1 <0>         0.0587
     39 H18         1.8590   -4.0823   -1.9034 H         1 <0>         0.0548
     40 H19         0.4492   -4.7466   -1.0436 H         1 <0>         0.0617
     41 H20         0.6748   -2.9845   -1.1546 H         1 <0>         0.0701
@<TRIPOS>BOND
     1    1    2 1
     2    1   22 1
     3    1   23 1
     4    1   24 1
     5    2    3 1
     6    2    4 1
     7    2   25 1
     8    3   26 1
     9    3   27 1
    10    3   28 1
    11    4    9 ar
    12    4    5 ar
    13    5    6 ar
    14    5   29 1
    15    6    7 ar
    16    6   30 1
    17    7    8 ar
    18    7   31 1
    19    8   14 1
    20    8    9 ar
    21    9   10 1
    22   10   11 1
    23   11   12 1
    24   11   19 1
    25   11   32 1
    26   12   13 2
    27   12   14 1
    28   14   15 1
    29   15   16 1
    30   15   33 1
    31   15   34 1
    32   16   17 2
    33   16   18 1
    34   19   20 1
    35   19   21 1
    36   19   35 1
    37   20   36 1
    38   20   37 1
    39   20   38 1
    40   21   39 1
    41   21   40 1
    42   21   41 1
@<TRIPOS>MOLECULE
CHEMBL164603__1
   41    42     0     0     0
SMALL
USER_CHARGES

@<TRIPOS>ATOM
      1 C1         -0.0187    1.5258    0.0104 C.3       1 <0>        -0.1422
      2 C2          0.0021   -0.0041    0.0020 C.3       1 <0>        -0.0504
      3 C3         -1.4333   -0.5336    0.0129 C.3       1 <0>        -0.1407
      4 C4          0.7074   -0.4901   -1.2379 C.ar      1 <0>        -0.0759
      5 C5          0.2223   -0.1514   -2.4884 C.ar      1 <0>        -0.1088
      6 C6          0.8653   -0.5964   -3.6284 C.ar      1 <0>        -0.1140
      7 C7          2.0012   -1.3788   -3.5255 C.ar      1 <0>        -0.1024
      8 C8          2.4978   -1.7131   -2.2766 C.ar      1 <0>         0.0905
      9 C9          1.8445   -1.2710   -1.1270 C.ar      1 <0>         0.0901
     10 O1          2.3156   -1.6324    0.0967 O.3       1 <0>        -0.3001
     11 C10         3.7288   -1.8066    0.2220 C.3       1 <0>         0.1241
     12 C11         4.2454   -2.6103   -0.9447 C.2       1 <0>         0.2324
     13 S1          5.4841   -3.6025   -0.7503 S.2       1 <0>        -0.4374
     14 N1          3.6508   -2.4989   -2.1534 N.pl3     1 <0>        -0.4300
     15 C12         4.2149   -3.1754   -3.3240 C.3       1 <0>         0.0128
     16 C13         5.2135   -2.2684   -3.9956 C.2       1 <0>         0.4975
     17 O2          5.4336   -1.1596   -3.5388 O.co2     1 <0>        -0.6753
     18 O3          5.8013   -2.6433   -4.9958 O.co2     1 <0>        -0.6840
     19 C14         4.4112   -0.4374    0.2393 C.3       1 <0>        -0.1128
     20 C15         3.8904    0.3771    1.4251 C.3       1 <0>        -0.1364
     21 C16         5.9240   -0.6232    0.3734 C.3       1 <0>        -0.1485
     22 H1          1.0039    1.9031    0.0027 H         1 <0>         0.0561
     23 H2         -0.5459    1.8868   -0.8726 H         1 <0>         0.0558
     24 H3         -0.5289    1.8773    0.9072 H         1 <0>         0.0563
     25 H4          0.5293   -0.3651    0.8851 H         1 <0>         0.0861
     26 H5         -1.9605   -0.1726   -0.8702 H         1 <0>         0.0555
     27 H6         -1.4185   -1.6235    0.0069 H         1 <0>         0.0549
     28 H7         -1.9435   -0.1821    0.9097 H         1 <0>         0.0560
     29 H8         -0.6616    0.4632   -2.5744 H         1 <0>         0.1291
     30 H9          0.4793   -0.3328   -4.6021 H         1 <0>         0.1300
     31 H10         2.4997   -1.7286   -4.4174 H         1 <0>         0.1342
     32 H11         3.9485   -2.3329    1.1509 H         1 <0>         0.1480
     33 H12         4.7118   -4.0930   -3.0090 H         1 <0>         0.1171
     34 H13         3.4153   -3.4173   -4.0242 H         1 <0>         0.0867
     35 H14         4.1908    0.0902   -0.6887 H         1 <0>         0.0788
     36 H15         2.8127    0.5095    1.3296 H         1 <0>         0.0595
     37 H16         4.1108   -0.1504    2.3531 H         1 <0>         0.0574
     38 H17         4.3766    1.3526    1.4374 H         1 <0>         0.0588
     39 H18         6.2951   -1.2035   -0.4714 H         1 <0>         0.0757
     40 H19         6.4102    0.3523    0.3857 H         1 <0>         0.0561
     41 H20         6.1444   -1.1508    1.3014 H         1 <0>         0.0595
@<TRIPOS>BOND
     1    1    2 1
     2    1   22 1
     3    1   23 1
     4    1   24 1
     5    2    3 1
     6    2    4 1
     7    2   25 1
     8    3   26 1
     9    3   27 1
    10    3   28 1
    11    4    9 ar
    12    4    5 ar
    13    5    6 ar
    14    5   29 1
    15    6    7 ar
    16    6   30 1
    17    7    8 ar
    18    7   31 1
    19    8   14 1
    20    8    9 ar
    21    9   10 1
    22   10   11 1
    23   11   12 1
    24   11   19 1
    25   11   32 1
    26   12   13 2
    27   12   14 1
    28   14   15 1
    29   15   16 1
    30   15   33 1
    31   15   34 1
    32   16   17 2
    33   16   18 1
    34   19   20 1
    35   19   21 1
    36   19   35 1
    37   20   36 1
    38   20   37 1
    39   20   38 1
    40   21   39 1
    41   21   40 1
    42   21   41 1
@<TRIPOS>MOLECULE
CHEMBL131730
   33    36     0     0     0
SMALL
USER_CHARGES

@<TRIPOS>ATOM
      1 C1         -0.0162    1.3794    0.0105 C.ar      1 <0>        -0.1086
      2 C2          0.6478    1.1258    1.1966 C.ar      1 <0>        -0.1123
      3 C3          1.8538    0.4528    1.1843 C.ar      1 <0>        -0.0949
      4 C4          2.3995    0.0308   -0.0207 C.ar      1 <0>         0.1208
      5 C5          1.7304    0.2870   -1.2100 C.ar      1 <0>        -0.0927
      6 C6          0.5246    0.9604   -1.1912 C.ar      1 <0>        -0.1109
      7 N1          3.6231   -0.6518   -0.0366 N.am      1 <0>        -0.5277
      8 C7          4.7613    0.0512   -0.1408 C.2       1 <0>         0.5964
      9 O1          4.6952    1.2634   -0.2211 O.2       1 <0>        -0.4890
     10 C8          6.0771   -0.5839   -0.1609 C.2       1 <0>        -0.0894
     11 C9          7.3574   -0.0820   -0.2548 C.2       1 <0>        -0.0761
     12 C10         8.2293   -1.1747   -0.2222 C.2       1 <0>        -0.2133
     13 C11         7.4819   -2.3000   -0.1116 C.2       1 <0>         0.0683
     14 N2          6.1795   -1.9595   -0.0738 N.pl3     1 <0>        -0.3959
     15 C12         4.9406   -2.7270    0.0342 C.3       1 <0>         0.0349
     16 C13         3.6251   -1.9978    0.0589 C.2       1 <0>         0.5622
     17 O2          2.5833   -2.6099    0.1583 O.2       1 <0>        -0.4508
     18 C14         5.0227   -3.5926    1.3010 C.3       1 <0>        -0.1752
     19 C15         5.0261   -5.0033    0.7471 C.2       1 <0>         0.4828
     20 O3          5.0874   -6.1232    1.4832 O.3       1 <0>        -0.6184
     21 N3          4.9605   -4.9618   -0.5516 N.2       1 <0>        -0.6671
     22 C16         4.9072   -3.7393   -1.0825 C.2       1 <0>         0.5284
     23 O4          4.8425   -3.4843   -2.2678 O.2       1 <0>        -0.5061
     24 H1         -0.9613    1.9019    0.0230 H         1 <0>         0.1279
     25 H2          0.2230    1.4546    2.1336 H         1 <0>         0.1303
     26 H3          2.3722    0.2553    2.1110 H         1 <0>         0.1248
     27 H4          2.1525   -0.0397   -2.1489 H         1 <0>         0.1268
     28 H5          0.0037    1.1599   -2.1160 H         1 <0>         0.1308
     29 H6          7.6347    0.9584   -0.3385 H         1 <0>         0.1515
     30 H7          9.3071   -1.1300   -0.2759 H         1 <0>         0.1544
     31 H8          7.8684   -3.3073   -0.0618 H         1 <0>         0.1723
     32 H9          5.9440   -3.3904    1.8474 H         1 <0>         0.1096
     33 H10         4.1523   -3.4298    1.9366 H         1 <0>         0.1061
@<TRIPOS>BOND
     1    1    6 ar
     2    1    2 ar
     3    1   24 1
     4    2    3 ar
     5    2   25 1
     6    3    4 ar
     7    3   26 1
     8    4    5 ar
     9    4    7 1
    10    5    6 ar
    11    5   27 1
    12    6   28 1
    13    7   16 am
    14    7    8 am
    15    8    9 2
    16    8   10 1
    17   10   14 1
    18   10   11 2
    19   11   12 1
    20   11   29 1
    21   12   13 2
    22   12   30 1
    23   13   14 1
    24   13   31 1
    25   14   15 1
    26   15   22 1
    27   15   16 1
    28   15   18 1
    29   16   17 2
    30   18   19 1
    31   18   32 1
    32   18   33 1
    33   19   20 1
    34   19   21 2
    35   21   22 1
    36   22   23 2
@<TRIPOS>MOLECULE
CHEMBL131730__1
   33    36     0     0     0
SMALL
USER_CHARGES

@<TRIPOS>ATOM
      1 C1         -0.0162    1.3794    0.0105 C.ar      1 <0>        -0.1086
      2 C2          0.6472    1.1247    1.1967 C.ar      1 <0>        -0.1108
      3 C3          1.8532    0.4517    1.1844 C.ar      1 <0>        -0.0928
      4 C4          2.3995    0.0308   -0.0207 C.ar      1 <0>         0.1208
      5 C5          1.7310    0.2880   -1.2101 C.ar      1 <0>        -0.0948
      6 C6          0.5252    0.9614   -1.1913 C.ar      1 <0>        -0.1123
      7 N1          3.6231   -0.6518   -0.0366 N.am      1 <0>        -0.5277
      8 C7          4.7613    0.0512   -0.1408 C.2       1 <0>         0.5964
      9 O1          4.6955    1.2637   -0.2159 O.2       1 <0>        -0.4890
     10 C8          6.0768   -0.5843   -0.1669 C.2       1 <0>        -0.0895
     11 C9          7.3567   -0.0830   -0.2685 C.2       1 <0>        -0.0760
     12 C10         8.2284   -1.1760   -0.2415 C.2       1 <0>        -0.2133
     13 C11         7.4811   -2.3010   -0.1261 C.2       1 <0>         0.0683
     14 N2          6.1792   -1.9599   -0.0793 N.pl3     1 <0>        -0.3958
     15 C12         4.9408   -2.7266    0.0397 C.3       1 <0>         0.0346
     16 C13         3.6251   -1.9978    0.0589 C.2       1 <0>         0.5623
     17 O2          2.5831   -2.6101    0.1552 O.2       1 <0>        -0.4507
     18 C14         4.9025   -3.7541   -1.1021 C.3       1 <0>        -0.1744
     19 C15         4.9703   -5.0782   -0.3680 C.2       1 <0>         0.4827
     20 O3          4.9656   -6.2868   -0.9504 O.3       1 <0>        -0.6185
     21 N3          5.0338   -4.8633    0.9136 N.2       1 <0>        -0.6672
     22 C16         5.0253   -3.5806    1.2792 C.2       1 <0>         0.5281
     23 O4          5.0777   -3.1692    2.4203 O.2       1 <0>        -0.5063
     24 H1         -0.9613    1.9019    0.0230 H         1 <0>         0.1279
     25 H2          0.2220    1.4526    2.1337 H         1 <0>         0.1308
     26 H3          2.3711    0.2534    2.1111 H         1 <0>         0.1267
     27 H4          2.1535   -0.0378   -2.1491 H         1 <0>         0.1249
     28 H5          0.0047    1.1618   -2.1162 H         1 <0>         0.1304
     29 H6          7.6340    0.9574   -0.3535 H         1 <0>         0.1515
     30 H7          9.3057   -1.1318   -0.3022 H         1 <0>         0.1544
     31 H8          7.8675   -3.3084   -0.0791 H         1 <0>         0.1723
     32 H9          3.9721   -3.6717   -1.6641 H         1 <0>         0.1059
     33 H10         5.7635   -3.6328   -1.7594 H         1 <0>         0.1097
@<TRIPOS>BOND
     1    1    6 ar
     2    1    2 ar
     3    1   24 1
     4    2    3 ar
     5    2   25 1
     6    3    4 ar
     7    3   26 1
     8    4    5 ar
     9    4    7 1
    10    5    6 ar
    11    5   27 1
    12    6   28 1
    13    7   16 am
    14    7    8 am
    15    8    9 2
    16    8   10 1
    17   10   14 1
    18   10   11 2
    19   11   12 1
    20   11   29 1
    21   12   13 2
    22   12   30 1
    23   13   14 1
    24   13   31 1
    25   14   15 1
    26   15   22 1
    27   15   16 1
    28   15   18 1
    29   16   17 2
    30   18   19 1
    31   18   32 1
    32   18   33 1
    33   19   20 1
    34   19   21 2
    35   21   22 1
    36   22   23 2
@<TRIPOS>MOLECULE
CHEMBL303218
   29    30     0     0     0
SMALL
USER_CHARGES

@<TRIPOS>ATOM
      1 C1          0.7325    1.4557   -0.5757 C.3       1 <0>        -0.1405
      2 C2          0.4985   -0.0440   -0.3831 C.3       1 <0>         0.0841
      3 H1          0.8779   -0.5887   -1.2477 H         1 <0>         0.0797
      4 C3         -1.0023   -0.3159   -0.2191 C.3       1 <0>        -0.1382
      5 C4         -1.2106   -1.8303   -0.1402 C.3       1 <0>         0.2010
      6 C5         -0.2402   -2.4255    0.8484 C.ar      1 <0>        -0.1432
      7 C6         -0.4943   -3.6913    1.3510 C.ar      1 <0>        -0.1009
      8 C7          0.3756   -4.2702    2.2564 C.ar      1 <0>         0.0737
      9 C8          1.5078   -3.5826    2.6637 C.ar      1 <0>        -0.0430
     10 C9          1.7630   -2.3203    2.1658 C.ar      1 <0>        -0.1206
     11 C10         0.8875   -1.7356    1.2565 C.ar      1 <0>         0.1511
     12 O1          1.1692   -0.4878    0.7972 O.3       1 <0>        -0.3104
     13 Cl1         2.6034   -4.3071    3.7989 Cl        1 <0>        -0.0509
     14 F1          0.1219   -5.5044    2.7437 F         1 <0>        -0.1302
     15 C11        -0.9758   -2.4490   -1.5197 C.3       1 <0>        -0.2123
     16 C12        -1.9876   -1.9029   -2.4939 C.2       1 <0>         0.4948
     17 O2         -2.8932   -1.1898   -2.0967 O.co2     1 <0>        -0.6695
     18 O3         -1.9005   -2.1743   -3.6794 O.co2     1 <0>        -0.7047
     19 O4         -2.5479   -2.1050    0.2819 O.3       1 <0>        -0.5179
     20 H2          1.8004    1.6460   -0.6827 H         1 <0>         0.0653
     21 H3          0.2118    1.7925   -1.4721 H         1 <0>         0.0842
     22 H4          0.3520    1.9970    0.2905 H         1 <0>         0.0664
     23 H5         -1.3626    0.1527    0.6967 H         1 <0>         0.0752
     24 H6         -1.5441    0.0854   -1.0755 H         1 <0>         0.1229
     25 H7         -1.3762   -4.2282    1.0344 H         1 <0>         0.1453
     26 H8          2.6454   -1.7848    2.4837 H         1 <0>         0.1496
     27 H9          0.0289   -2.2019   -1.8625 H         1 <0>         0.0650
     28 H10        -1.0815   -3.5319   -1.4549 H         1 <0>         0.0630
     29 H11        -2.7518   -3.0474    0.3543 H         1 <0>         0.3611
@<TRIPOS>BOND
     1    1    2 1
     2    1   20 1
     3    1   21 1
     4    1   22 1
     5    2    3 1
     6    2   12 1
     7    2    4 1
     8    4    5 1
     9    4   23 1
    10    4   24 1
    11    5    6 1
    12    5   15 1
    13    5   19 1
    14    6   11 ar
    15    6    7 ar
    16    7    8 ar
    17    7   25 1
    18    8    9 ar
    19    8   14 1
    20    9   10 ar
    21    9   13 1
    22   10   11 ar
    23   10   26 1
    24   11   12 1
    25   15   16 1
    26   15   27 1
    27   15   28 1
    28   16   17 2
    29   16   18 1
    30   19   29 1
@<TRIPOS>MOLECULE
CHEMBL20304
   46    50     0     0     0
SMALL
USER_CHARGES

@<TRIPOS>ATOM
      1 C1         -0.0184    1.5028    0.0103 C.3       1 <0>        -0.1203
      2 C2          0.0021   -0.0041    0.0020 C.ar      1 <0>        -0.0192
      3 C3         -0.0979   -0.6926   -1.1871 C.ar      1 <0>        -0.1335
      4 C4         -0.0806   -2.0812   -1.2062 C.ar      1 <0>        -0.0863
      5 C5          0.0372   -2.8002   -0.0377 C.ar      1 <0>        -0.1090
      6 C6          0.1404   -2.1244    1.1794 C.ar      1 <0>        -0.0383
      7 C7          0.1280   -0.7107    1.1967 C.ar      1 <0>        -0.1383
      8 C8          0.2442   -0.0312    2.4932 C.2       1 <0>         0.5200
      9 O1          0.2332    1.1850    2.5595 O.2       1 <0>        -0.5334
     10 N1          0.3631   -0.7794    3.6097 N.am      1 <0>        -0.4399
     11 N2          0.3780   -2.1736    3.5613 N.2       1 <0>        -0.1205
     12 C9          0.2671   -2.8386    2.4501 C.2       1 <0>         0.1229
     13 C10         0.2894   -4.3453    2.4684 C.3       1 <0>        -0.1329
     14 C11         0.4268   -4.8284    3.8892 C.2       1 <0>         0.4883
     15 O2          0.4998   -4.0238    4.8023 O.co2     1 <0>        -0.6462
     16 O3          0.4649   -6.0239    4.1256 O.co2     1 <0>        -0.7064
     17 C12         0.4801   -0.1098    4.9075 C.3       1 <0>         0.2239
     18 C13        -0.8938    0.1003    5.4900 C.2       1 <0>         0.0719
     19 N3         -1.5642   -0.6996    6.2703 N.2       1 <0>        -0.4724
     20 C14        -2.7860   -0.3979    6.7252 C.ar      1 <0>         0.1059
     21 C15        -3.6890   -1.1615    7.6037 C.ar      1 <0>         0.0004
     22 C16        -3.3104   -2.4137    8.1004 C.ar      1 <0>        -0.0832
     23 C17        -4.1631   -3.1020    8.9125 C.ar      1 <0>        -0.1169
     24 C18        -5.4048   -2.5733    9.2526 C.ar      1 <0>        -0.1118
     25 C19        -5.8020   -1.3574    8.7848 C.ar      1 <0>        -0.1117
     26 C20        -4.9474   -0.6208    7.9458 C.ar      1 <0>        -0.0470
     27 C21        -5.3385    0.6409    7.4516 C.ar      1 <0>        -0.0909
     28 C22        -4.5056    1.3452    6.6414 C.ar      1 <0>        -0.0612
     29 C23        -3.2642    0.8489    6.2828 C.ar      1 <0>        -0.1848
     30 S1         -1.9120    1.4255    5.2881 S.3       1 <0>         0.1314
     31 H1          1.0041    1.8799    0.0300 H         1 <0>         0.0736
     32 H2         -0.5217    1.8642   -0.8864 H         1 <0>         0.0589
     33 H3         -0.5523    1.8540    0.8933 H         1 <0>         0.0961
     34 H4         -0.1911   -0.1468   -2.1144 H         1 <0>         0.1291
     35 H5         -0.1609   -2.6031   -2.1483 H         1 <0>         0.1304
     36 H6          0.0493   -3.8799   -0.0627 H         1 <0>         0.1400
     37 H7         -0.6383   -4.7277    2.0427 H         1 <0>         0.0846
     38 H8          1.1340   -4.7034    1.8796 H         1 <0>         0.0861
     39 H9          1.0707   -0.7282    5.5835 H         1 <0>         0.1323
     40 H10         0.9703    0.8548    4.7757 H         1 <0>         0.1199
     41 H11        -2.3491   -2.8327    7.8420 H         1 <0>         0.1414
     42 H12        -3.8715   -4.0687    9.2958 H         1 <0>         0.1276
     43 H13        -6.0638   -3.1361    9.8972 H         1 <0>         0.1236
     44 H14        -6.7689   -0.9608    9.0571 H         1 <0>         0.1291
     45 H15        -6.3028    1.0481    7.7176 H         1 <0>         0.1375
     46 H16        -4.8182    2.3098    6.2696 H         1 <0>         0.1296
@<TRIPOS>BOND
     1    1    2 1
     2    1   31 1
     3    1   32 1
     4    1   33 1
     5    2    7 ar
     6    2    3 ar
     7    3    4 ar
     8    3   34 1
     9    4    5 ar
    10    4   35 1
    11    5    6 ar
    12    5   36 1
    13    6   12 1
    14    6    7 ar
    15    7    8 1
    16    8    9 2
    17    8   10 am
    18   10   11 1
    19   10   17 1
    20   11   12 2
    21   12   13 1
    22   13   14 1
    23   13   37 1
    24   13   38 1
    25   14   15 2
    26   14   16 1
    27   17   18 1
    28   17   39 1
    29   17   40 1
    30   18   30 1
    31   18   19 2
    32   19   20 1
    33   20   29 ar
    34   20   21 ar
    35   21   26 ar
    36   21   22 ar
    37   22   23 ar
    38   22   41 1
    39   23   24 ar
    40   23   42 1
    41   24   25 ar
    42   24   43 1
    43   25   26 ar
    44   25   44 1
    45   26   27 ar
    46   27   28 ar
    47   27   45 1
    48   28   29 ar
    49   28   46 1
    50   29   30 1
@<TRIPOS>MOLECULE
CHEMBL281407
   38    41     0     0     0
SMALL
USER_CHARGES

@<TRIPOS>ATOM
      1 C1         -0.0165    1.3627    0.0095 C.ar      1 <0>        -0.0957
      2 C2          1.1654    2.0924    0.0022 C.ar      1 <0>        -0.1280
      3 C3          2.3861    1.4540   -0.0134 C.ar      1 <0>        -0.0584
      4 C4          2.4294    0.0605   -0.0213 C.ar      1 <0>        -0.1265
      5 C5          1.2244   -0.6786   -0.0133 C.ar      1 <0>        -0.0467
      6 C6          0.0021   -0.0041    0.0020 C.ar      1 <0>        -0.0999
      7 C7          1.3000   -2.1396   -0.0224 C.2       1 <0>         0.1266
      8 N1          2.4575   -2.7306   -0.0371 N.2       1 <0>        -0.1305
      9 N2          3.6626   -2.0276   -0.0452 N.am      1 <0>        -0.4435
     10 C8          3.6977   -0.6787   -0.0384 C.2       1 <0>         0.4933
     11 O1          4.7616   -0.0856   -0.0461 O.2       1 <0>        -0.4711
     12 C9          4.9232   -2.7737   -0.0618 C.3       1 <0>         0.1568
     13 S1          5.4266   -3.0724   -1.7787 S.3       1 <0>         0.0337
     14 C10         6.0255   -1.5082   -2.3257 C.2       1 <0>         0.1155
     15 N3          6.1051   -0.3774   -1.6603 N.2       1 <0>        -0.4422
     16 C11         6.5913    0.7558   -2.2123 C.ar      1 <0>         0.0953
     17 C12         6.7301    2.0287   -1.6124 C.ar      1 <0>        -0.0536
     18 C13         7.2465    3.0834   -2.3192 C.ar      1 <0>        -0.1182
     19 C14         7.6491    2.9434   -3.6393 C.ar      1 <0>        -0.1038
     20 C15         7.5275    1.7121   -4.2575 C.ar      1 <0>        -0.0690
     21 C16         7.0119    0.6505   -3.5574 C.ar      1 <0>        -0.1506
     22 S2          6.6867   -1.0574   -3.9237 S.3       1 <0>         0.0104
     23 C17         0.0356   -2.9595   -0.0143 C.3       1 <0>        -0.1323
     24 C18         0.3870   -4.4249   -0.0262 C.2       1 <0>         0.4904
     25 O2          1.5559   -4.7714   -0.0401 O.co2     1 <0>        -0.6539
     26 O3         -0.4975   -5.2640   -0.0221 O.co2     1 <0>        -0.7045
     27 H1         -0.9631    1.8823    0.0259 H         1 <0>         0.1288
     28 H2          1.1269    3.1717    0.0083 H         1 <0>         0.1278
     29 H3          3.3010    2.0277   -0.0197 H         1 <0>         0.1339
     30 H4         -0.9242   -0.5594    0.0075 H         1 <0>         0.1393
     31 H5          5.6943   -2.1956    0.4476 H         1 <0>         0.1266
     32 H6          4.7877   -3.7274    0.4483 H         1 <0>         0.1513
     33 H7          6.4254    2.1715   -0.5862 H         1 <0>         0.1332
     34 H8          7.3419    4.0453   -1.8375 H         1 <0>         0.1298
     35 H9          8.0529    3.7873   -4.1789 H         1 <0>         0.1344
     36 H10         7.8360    1.5870   -5.2849 H         1 <0>         0.1294
     37 H11        -0.5398   -2.7311    0.8829 H         1 <0>         0.0858
     38 H12        -0.5578   -2.7210   -0.8970 H         1 <0>         0.0858
@<TRIPOS>BOND
     1    1    6 ar
     2    1    2 ar
     3    1   27 1
     4    2    3 ar
     5    2   28 1
     6    3    4 ar
     7    3   29 1
     8    4   10 1
     9    4    5 ar
    10    5    6 ar
    11    5    7 1
    12    6   30 1
    13    7    8 2
    14    7   23 1
    15    8    9 1
    16    9   10 am
    17    9   12 1
    18   10   11 2
    19   12   13 1
    20   12   31 1
    21   12   32 1
    22   13   14 1
    23   14   22 1
    24   14   15 2
    25   15   16 1
    26   16   21 ar
    27   16   17 ar
    28   17   18 ar
    29   17   33 1
    30   18   19 ar
    31   18   34 1
    32   19   20 ar
    33   19   35 1
    34   20   21 ar
    35   20   36 1
    36   21   22 1
    37   23   24 1
    38   23   37 1
    39   23   38 1
    40   24   25 2
    41   24   26 1
@<TRIPOS>MOLECULE
CHEMBL192182
   46    50     0     0     0
SMALL
USER_CHARGES

@<TRIPOS>ATOM
      1 C1         -0.0167    1.3790    0.0096 C.ar      1 <0>        -0.1341
      2 C2          1.1687    2.0919    0.0021 C.ar      1 <0>        -0.1164
      3 C3          2.3774    1.4259   -0.0134 C.ar      1 <0>        -0.1199
      4 C4          2.4022    0.0327   -0.0211 C.ar      1 <0>        -0.0168
      5 C5          1.2051   -0.6804   -0.0130 C.ar      1 <0>        -0.1206
      6 C6          0.0021   -0.0041    0.0020 C.ar      1 <0>        -0.1161
      7 C7          3.6987   -0.6889   -0.0383 C.ar      1 <0>        -0.0891
      8 C8          4.8983    0.0307   -0.0409 C.ar      1 <0>        -0.0957
      9 C9          6.0994   -0.6174   -0.0566 C.ar      1 <0>        -0.1082
     10 C10         6.1444   -2.0088   -0.0703 C.ar      1 <0>         0.1243
     11 C11         4.9440   -2.7434   -0.0673 C.ar      1 <0>        -0.0971
     12 C12         3.7191   -2.0765   -0.0458 C.ar      1 <0>        -0.0609
     13 C13         5.3330   -4.1559   -0.0844 C.2       1 <0>        -0.2141
     14 C14         6.6747   -4.1927   -0.0962 C.2       1 <0>         0.1092
     15 N1          7.1767   -2.9199   -0.0880 N.pl3     1 <0>        -0.4338
     16 C15         8.6011   -2.5774   -0.0967 C.3       1 <0>         0.0287
     17 C16         9.0726   -2.3534    1.3170 C.2       1 <0>         0.4819
     18 O1          8.2912   -2.4692    2.2458 O.co2     1 <0>        -0.6703
     19 O2         10.2353   -2.0564    1.5320 O.co2     1 <0>        -0.6892
     20 C17         4.4034   -5.3420   -0.0877 C.3       1 <0>         0.0451
     21 C18         3.9836   -5.6473   -1.5025 C.2       1 <0>         0.1493
     22 N2          4.5632   -6.4439   -2.3523 N.2       1 <0>        -0.5135
     23 C19         4.0856   -6.6344   -3.5998 C.ar      1 <0>         0.1212
     24 C20         4.5783   -7.4503   -4.6426 C.ar      1 <0>         0.1066
     25 C21         3.9305   -7.4992   -5.8539 C.ar      1 <0>         0.1091
     26 C22         2.7807   -6.7548   -6.0903 C.ar      1 <0>        -0.1566
     27 C23         2.2742   -5.9464   -5.0881 C.ar      1 <0>         0.1903
     28 C24         2.9163   -5.8915   -3.8726 C.ar      1 <0>        -0.2252
     29 S1          2.6547   -5.0404   -2.3382 S.3       1 <0>         0.1600
     30 F1          1.1573   -5.2168   -5.3014 F         1 <0>        -0.1148
     31 F2          4.4219   -8.2869   -6.8354 F         1 <0>        -0.1143
     32 F3          5.6939   -8.1871   -4.4481 F         1 <0>        -0.1085
     33 H1         -0.9603    1.9042    0.0260 H         1 <0>         0.1170
     34 H2          1.1483    3.1717    0.0081 H         1 <0>         0.1193
     35 H3          3.3023    1.9835   -0.0199 H         1 <0>         0.1244
     36 H4          1.2186   -1.7603   -0.0189 H         1 <0>         0.1232
     37 H5         -0.9264   -0.5558    0.0082 H         1 <0>         0.1196
     38 H6          4.8738    1.1103   -0.0308 H         1 <0>         0.1227
     39 H7          7.0177   -0.0490   -0.0589 H         1 <0>         0.1183
     40 H8          2.7948   -2.6350   -0.0397 H         1 <0>         0.1172
     41 H9          7.2700   -5.0937   -0.1104 H         1 <0>         0.1642
     42 H10         9.1684   -3.3936   -0.5439 H         1 <0>         0.0897
     43 H11         8.7526   -1.6682   -0.6786 H         1 <0>         0.0855
     44 H12         4.9162   -6.2067    0.3337 H         1 <0>         0.1121
     45 H13         3.5220   -5.1145    0.5118 H         1 <0>         0.1048
     46 H14         2.2865   -6.8068   -7.0493 H         1 <0>         0.1716
@<TRIPOS>BOND
     1    1    6 ar
     2    1    2 ar
     3    1   33 1
     4    2    3 ar
     5    2   34 1
     6    3    4 ar
     7    3   35 1
     8    4    5 ar
     9    4    7 1
    10    5    6 ar
    11    5   36 1
    12    6   37 1
    13    7   12 ar
    14    7    8 ar
    15    8    9 ar
    16    8   38 1
    17    9   10 ar
    18    9   39 1
    19   10   15 1
    20   10   11 ar
    21   11   12 ar
    22   11   13 1
    23   12   40 1
    24   13   14 2
    25   13   20 1
    26   14   15 1
    27   14   41 1
    28   15   16 1
    29   16   17 1
    30   16   42 1
    31   16   43 1
    32   17   18 2
    33   17   19 1
    34   20   21 1
    35   20   44 1
    36   20   45 1
    37   21   29 1
    38   21   22 2
    39   22   23 1
    40   23   28 ar
    41   23   24 ar
    42   24   25 ar
    43   24   32 1
    44   25   26 ar
    45   25   31 1
    46   26   27 ar
    47   26   46 1
    48   27   28 ar
    49   27   30 1
    50   28   29 1
@<TRIPOS>MOLECULE
CHEMBL21101
   43    46     0     0     0
SMALL
USER_CHARGES

@<TRIPOS>ATOM
      1 C1         -0.0165    1.3627    0.0095 C.ar      1 <0>        -0.0928
      2 C2          1.1654    2.0924    0.0022 C.ar      1 <0>        -0.1273
      3 C3          2.3861    1.4540   -0.0134 C.ar      1 <0>        -0.0569
      4 C4          2.4294    0.0605   -0.0213 C.ar      1 <0>        -0.1335
      5 C5          1.2244   -0.6786   -0.0133 C.ar      1 <0>        -0.0439
      6 C6          0.0021   -0.0041    0.0020 C.ar      1 <0>        -0.1002
      7 C7          1.3000   -2.1396   -0.0224 C.2       1 <0>         0.1252
      8 N1          2.4575   -2.7306   -0.0371 N.2       1 <0>        -0.1323
      9 N2          3.6626   -2.0276   -0.0452 N.am      1 <0>        -0.4421
     10 C8          3.6977   -0.6787   -0.0384 C.2       1 <0>         0.5179
     11 O1          4.7616   -0.0856   -0.0461 O.2       1 <0>        -0.5380
     12 C9          4.9232   -2.7737   -0.0618 C.3       1 <0>         0.1470
     13 C10         5.3764   -3.0412    1.3749 C.3       1 <0>        -0.0548
     14 C11         6.6732   -3.8087    1.3579 C.2       1 <0>         0.1252
     15 N3          7.8831   -3.3302    1.3538 N.2       1 <0>        -0.5109
     16 C12         8.9713   -4.1274    1.3387 C.ar      1 <0>         0.0878
     17 C13        10.3408   -3.7896    1.3318 C.ar      1 <0>        -0.0107
     18 C14        11.2934   -4.7618    1.3152 C.ar      1 <0>        -0.1711
     19 C15        10.9578   -6.1087    1.3046 C.ar      1 <0>        -0.0691
     20 C16         9.6261   -6.4789    1.3115 C.ar      1 <0>        -0.0513
     21 C17         8.6571   -5.5053    1.3282 C.ar      1 <0>        -0.1634
     22 S1          6.8837   -5.4785    1.3474 S.3       1 <0>         0.1411
     23 C18        12.7476   -4.3663    1.3077 C.3       1 <0>         0.5120
     24 F1         13.2078   -4.2563    2.6242 F         1 <0>        -0.1746
     25 F2         13.4921   -5.3398    0.6331 F         1 <0>        -0.1745
     26 F3         12.8927   -3.1355    0.6586 F         1 <0>        -0.1749
     27 C19         0.0356   -2.9595   -0.0143 C.3       1 <0>        -0.1334
     28 C20         0.3870   -4.4249   -0.0262 C.2       1 <0>         0.4902
     29 O2          1.5559   -4.7714   -0.0401 O.co2     1 <0>        -0.6545
     30 O3         -0.4975   -5.2640   -0.0221 O.co2     1 <0>        -0.7038
     31 H1         -0.9631    1.8823    0.0259 H         1 <0>         0.1299
     32 H2          1.1269    3.1717    0.0083 H         1 <0>         0.1297
     33 H3          3.3010    2.0277   -0.0197 H         1 <0>         0.1375
     34 H4         -0.9242   -0.5594    0.0075 H         1 <0>         0.1403
     35 H5          4.7775   -3.7219   -0.5793 H         1 <0>         0.1030
     36 H6          5.6841   -2.1901   -0.5800 H         1 <0>         0.0971
     37 H7          5.5221   -2.0931    1.8924 H         1 <0>         0.1041
     38 H8          4.6156   -3.6249    1.8931 H         1 <0>         0.1104
     39 H9         10.6360   -2.7508    1.3393 H         1 <0>         0.1457
     40 H10        11.7317   -6.8619    1.2908 H         1 <0>         0.1494
     41 H11         9.3502   -7.5230    1.3038 H         1 <0>         0.1472
     42 H12        -0.5398   -2.7311    0.8829 H         1 <0>         0.0868
     43 H13        -0.5578   -2.7210   -0.8970 H         1 <0>         0.0867
@<TRIPOS>BOND
     1    1    6 ar
     2    1    2 ar
     3    1   31 1
     4    2    3 ar
     5    2   32 1
     6    3    4 ar
     7    3   33 1
     8    4   10 1
     9    4    5 ar
    10    5    6 ar
    11    5    7 1
    12    6   34 1
    13    7    8 2
    14    7   27 1
    15    8    9 1
    16    9   10 am
    17    9   12 1
    18   10   11 2
    19   12   13 1
    20   12   35 1
    21   12   36 1
    22   13   14 1
    23   13   37 1
    24   13   38 1
    25   14   22 1
    26   14   15 2
    27   15   16 1
    28   16   21 ar
    29   16   17 ar
    30   17   18 ar
    31   17   39 1
    32   18   19 ar
    33   18   23 1
    34   19   20 ar
    35   19   40 1
    36   20   21 ar
    37   20   41 1
    38   21   22 1
    39   23   24 1
    40   23   25 1
    41   23   26 1
    42   27   28 1
    43   27   42 1
    44   27   43 1
    45   28   29 2
    46   28   30 1
@<TRIPOS>MOLECULE
CHEMBL114289
   74    77     0     0     0
SMALL
USER_CHARGES

@<TRIPOS>ATOM
      1 C1          0.0435   -0.1348    0.0364 C.3       1 <0>        -0.1192
      2 C2         -0.2283   -1.4830    0.6525 C.ar      1 <0>        -0.0493
      3 C3         -0.7491   -2.4775   -0.1137 C.ar      1 <0>        -0.0982
      4 C4         -1.0079   -3.7405    0.4493 C.ar      1 <0>        -0.0364
      5 C5         -0.7217   -3.9666    1.8169 C.ar      1 <0>        -0.0241
      6 C6         -0.9957   -5.2864    2.3919 C.ar      1 <0>        -0.2043
      7 C7         -1.5321   -6.2778    1.5644 C.ar      1 <0>         0.1698
      8 C8         -1.7977   -6.0045    0.2174 C.ar      1 <0>         0.0746
      9 C9         -1.5474   -4.7813   -0.3277 C.ar      1 <0>        -0.0399
     10 C10        -1.8525   -4.5402   -1.7837 C.3       1 <0>        -0.0593
     11 C11        -1.0653   -5.5334   -2.6410 C.3       1 <0>        -0.1509
     12 C12        -3.3507   -4.7302   -2.0291 C.3       1 <0>        -0.1492
     13 O1         -2.3188   -6.9851   -0.5671 O.3       1 <0>        -0.4762
     14 O2         -1.7955   -7.5082    2.0683 O.3       1 <0>        -0.4661
     15 C13        -0.7141   -5.5605    3.7994 C.2       1 <0>         0.3519
     16 O3         -0.8505   -6.6842    4.2380 O.2       1 <0>        -0.4467
     17 C14        -0.1852   -2.9331    2.5950 C.ar      1 <0>         0.1081
     18 C15         0.0650   -1.6962    2.0075 C.ar      1 <0>        -0.0312
     19 C16         0.6380   -0.5979    2.8188 C.ar      1 <0>        -0.0373
     20 C17         2.0297   -0.4407    2.8963 C.ar      1 <0>        -0.0596
     21 C18         2.5789    0.5601    3.6341 C.ar      1 <0>        -0.0989
     22 C19         1.7513    1.4568    4.3341 C.ar      1 <0>        -0.0360
     23 C20         0.3454    1.3088    4.2640 C.ar      1 <0>        -0.0249
     24 C21        -0.2073    0.2765    3.4958 C.ar      1 <0>         0.1236
     25 O4         -1.5549    0.1272    3.4159 O.3       1 <0>        -0.3245
     26 C22        -2.1743   -0.7087    4.3956 C.3       1 <0>         0.0192
     27 C23        -0.5059    2.2493    4.9976 C.ar      1 <0>        -0.2017
     28 C24         0.1050    3.2626    5.7430 C.ar      1 <0>         0.1691
     29 C25         1.5005    3.3671    5.7802 C.ar      1 <0>         0.0760
     30 C26         2.3017    2.4986    5.1022 C.ar      1 <0>        -0.0418
     31 C27         3.7987    2.6556    5.1771 C.3       1 <0>        -0.0588
     32 C28         4.1846    4.0740    4.7528 C.3       1 <0>        -0.1539
     33 C29         4.2663    2.4077    6.6127 C.3       1 <0>        -0.1468
     34 O5          2.0709    4.3611    6.5117 O.3       1 <0>        -0.4754
     35 O6         -0.6568    4.1470    6.4318 O.3       1 <0>        -0.4673
     36 C30        -1.9617    2.1312    4.9509 C.2       1 <0>         0.3546
     37 O7         -2.6514    2.8468    5.6478 O.2       1 <0>        -0.4499
     38 C31         2.9282   -1.3944    2.1519 C.3       1 <0>        -0.1229
     39 O8          0.0937   -3.1374    3.9085 O.3       1 <0>        -0.3261
     40 C32         1.4029   -3.6131    4.2273 C.3       1 <0>         0.0128
     41 H1          1.0565   -0.1165   -0.3655 H         1 <0>         0.0752
     42 H2         -0.6697    0.0477   -0.7675 H         1 <0>         0.0731
     43 H3         -0.0599    0.6395    0.7965 H         1 <0>         0.0731
     44 H4         -0.9649   -2.2978   -1.1565 H         1 <0>         0.1411
     45 H5         -1.5666   -3.5229   -2.0512 H         1 <0>         0.0865
     46 H6         -1.3512   -6.5506   -2.3734 H         1 <0>         0.0794
     47 H7         -1.2859   -5.3590   -3.6941 H         1 <0>         0.0596
     48 H8          0.0021   -5.3980   -2.4661 H         1 <0>         0.0528
     49 H9         -3.9115   -4.0226   -1.4184 H         1 <0>         0.0571
     50 H10        -3.5713   -4.5558   -3.0822 H         1 <0>         0.0667
     51 H11        -3.6366   -5.7474   -1.7616 H         1 <0>         0.0593
     52 H12        -3.2854   -7.0064   -0.5799 H         1 <0>         0.3852
     53 H13        -2.6877   -7.6028    2.4289 H         1 <0>         0.3957
     54 H14        -0.3845   -4.7635    4.4494 H         1 <0>         0.1350
     55 H15         3.6524    0.6668    3.6834 H         1 <0>         0.1407
     56 H16        -1.7634   -1.7159    4.3260 H         1 <0>         0.0673
     57 H17        -1.9827   -0.3060    5.3902 H         1 <0>         0.0479
     58 H18        -3.2492   -0.7418    4.2179 H         1 <0>         0.1018
     59 H19         4.2733    1.9352    4.5109 H         1 <0>         0.0858
     60 H20         3.7099    4.7944    5.4190 H         1 <0>         0.0830
     61 H21         5.2673    4.1876    4.8070 H         1 <0>         0.0585
     62 H22         3.8514    4.2506    3.7301 H         1 <0>         0.0529
     63 H23         3.7916    3.1281    7.2789 H         1 <0>         0.0573
     64 H24         3.9914    1.3972    6.9150 H         1 <0>         0.0567
     65 H25         5.3490    2.5213    6.6669 H         1 <0>         0.0667
     66 H26         2.2569    4.1174    7.4288 H         1 <0>         0.3847
     67 H27        -0.8572    3.8723    7.3370 H         1 <0>         0.3971
     68 H28        -2.4240    1.4072    4.2963 H         1 <0>         0.1366
     69 H29         3.1207   -1.0065    1.1516 H         1 <0>         0.0795
     70 H30         3.8710   -1.4993    2.6886 H         1 <0>         0.0743
     71 H31         2.4426   -2.3674    2.0770 H         1 <0>         0.0683
     72 H32         1.4930   -3.7333    5.3069 H         1 <0>         0.1043
     73 H33         1.5692   -4.5737    3.7397 H         1 <0>         0.0511
     74 H34         2.1453   -2.8953    3.8784 H         1 <0>         0.0627
@<TRIPOS>BOND
     1    1    2 1
     2    1   41 1
     3    1   42 1
     4    1   43 1
     5    2   18 ar
     6    2    3 ar
     7    3    4 ar
     8    3   44 1
     9    4    9 ar
    10    4    5 ar
    11    5    6 ar
    12    5   17 ar
    13    6    7 ar
    14    6   15 1
    15    7    8 ar
    16    7   14 1
    17    8    9 ar
    18    8   13 1
    19    9   10 1
    20   10   11 1
    21   10   12 1
    22   10   45 1
    23   11   46 1
    24   11   47 1
    25   11   48 1
    26   12   49 1
    27   12   50 1
    28   12   51 1
    29   13   52 1
    30   14   53 1
    31   15   16 2
    32   15   54 1
    33   17   18 ar
    34   17   39 1
    35   18   19 1
    36   19   24 ar
    37   19   20 ar
    38   20   21 ar
    39   20   38 1
    40   21   22 ar
    41   21   55 1
    42   22   30 ar
    43   22   23 ar
    44   23   24 ar
    45   23   27 ar
    46   24   25 1
    47   25   26 1
    48   26   56 1
    49   26   57 1
    50   26   58 1
    51   27   28 ar
    52   27   36 1
    53   28   29 ar
    54   28   35 1
    55   29   30 ar
    56   29   34 1
    57   30   31 1
    58   31   32 1
    59   31   33 1
    60   31   59 1
    61   32   60 1
    62   32   61 1
    63   32   62 1
    64   33   63 1
    65   33   64 1
    66   33   65 1
    67   34   66 1
    68   35   67 1
    69   36   37 2
    70   36   68 1
    71   38   69 1
    72   38   70 1
    73   38   71 1
    74   39   40 1
    75   40   72 1
    76   40   73 1
    77   40   74 1
@<TRIPOS>MOLECULE
CHEMBL82608
   28    30     0     0     0
SMALL
USER_CHARGES

@<TRIPOS>ATOM
      1 C1         -0.0168    1.3895    0.0097 C.ar      1 <0>        -0.1098
      2 C2          1.1561    2.1144    0.0024 C.ar      1 <0>         0.0278
      3 C3          2.3730    1.4569   -0.0163 C.ar      1 <0>        -0.0977
      4 C4          2.3975    0.0764   -0.0384 C.ar      1 <0>         0.0610
      5 C5          1.2154   -0.6518   -0.0345 C.ar      1 <0>        -0.6144
      6 C6          0.0021   -0.0041    0.0020 C.ar      1 <0>         0.0145
      7 C7         -1.3286   -0.6952    0.0609 C.3       1 <0>         0.1486
      8 C8         -1.3213   -2.0978   -0.5225 C.3       1 <0>        -0.1115
      9 C9         -0.3592   -2.9743    0.2938 C.3       1 <0>        -0.6030
     10 S1          1.3271   -2.4133   -0.0894 S.o2      1 <0>         2.4829
     11 O1          2.2120   -2.7566    0.9680 O.2       1 <0>        -0.9053
     12 O2          1.6518   -2.7170   -1.4391 O.2       1 <0>        -0.9039
     13 C10        -2.3723    0.1498   -0.6421 C.2       1 <0>         0.5393
     14 O3         -2.3982    0.4554   -1.8150 O.2       1 <0>        -0.4332
     15 N1         -3.2658    0.4905    0.3075 N.am      1 <0>        -0.6756
     16 C11        -2.9357   -0.0170    1.5006 C.2       1 <0>         0.7084
     17 O4         -3.5887    0.1535    2.5113 O.2       1 <0>        -0.5202
     18 N2         -1.8007   -0.7373    1.4564 N.am      1 <0>        -0.7153
     19 Cl1         3.9205   -0.7562   -0.0719 Cl        1 <0>        -0.0112
     20 Cl2         1.1057    3.8496    0.0161 Cl        1 <0>        -0.0255
     21 H1         -0.9636    1.9089    0.0261 H         1 <0>         0.1423
     22 H2          3.2956    2.0182   -0.0141 H         1 <0>         0.1653
     23 H3         -2.3261   -2.5177   -0.4755 H         1 <0>         0.1208
     24 H4         -0.9887   -2.0596   -1.5599 H         1 <0>         0.1199
     25 H5         -0.5584   -2.8530    1.3586 H         1 <0>         0.1444
     26 H6         -0.4768   -4.0200    0.0094 H         1 <0>         0.1637
     27 H7         -4.0511    1.0364    0.1460 H         1 <0>         0.4421
     28 H8         -1.3758   -1.1955    2.1984 H         1 <0>         0.4456
@<TRIPOS>BOND
     1    1    6 ar
     2    1    2 ar
     3    1   21 1
     4    2    3 ar
     5    2   20 1
     6    3    4 ar
     7    3   22 1
     8    4    5 ar
     9    4   19 1
    10    5   10 1
    11    5    6 ar
    12    6    7 1
    13    7   18 1
    14    7    8 1
    15    7   13 1
    16    8    9 1
    17    8   23 1
    18    8   24 1
    19    9   10 1
    20    9   25 1
    21    9   26 1
    22   10   11 2
    23   10   12 2
    24   13   14 2
    25   13   15 am
    26   15   16 am
    27   15   27 1
    28   16   17 2
    29   16   18 am
    30   18   28 1
@<TRIPOS>MOLECULE
CHEMBL82608__1
   27    29     0     0     0
SMALL
USER_CHARGES

@<TRIPOS>ATOM
      1 C1         -0.0168    1.3896    0.0097 C.ar      1 <0>        -0.0962
      2 C2          1.1561    2.1145    0.0024 C.ar      1 <0>         0.0235
      3 C3          2.3730    1.4571   -0.0165 C.ar      1 <0>        -0.1165
      4 C4          2.3977    0.0766   -0.0382 C.ar      1 <0>         0.0552
      5 C5          1.2157   -0.6515   -0.0344 C.ar      1 <0>        -0.6289
      6 C6          0.0021   -0.0041    0.0020 C.ar      1 <0>         0.0567
      7 C7         -1.3288   -0.6946    0.0602 C.3       1 <0>         0.1110
      8 C8         -1.3223   -2.1001   -0.5154 C.3       1 <0>        -0.0960
      9 C9         -0.3581   -2.9731    0.3021 C.3       1 <0>        -0.5981
     10 S1          1.3273   -2.4131   -0.0881 S.o2      1 <0>         2.4871
     11 O1          2.2151   -2.7556    0.9672 O.2       1 <0>        -0.9240
     12 O2          1.6480   -2.7182   -1.4384 O.2       1 <0>        -0.9188
     13 C10        -2.3712    0.1481   -0.6470 C.2       1 <0>         0.4700
     14 O3         -2.3938    0.4778   -1.9485 O.3       1 <0>        -0.6207
     15 N1         -3.2431    0.4884    0.2627 N.2       1 <0>        -0.6615
     16 C11        -2.9405   -0.0006    1.4718 C.2       1 <0>         0.6630
     17 O4         -3.6115    0.1890    2.4692 O.2       1 <0>        -0.5795
     18 N2         -1.8067   -0.7277    1.4548 N.am      1 <0>        -0.7626
     19 Cl1         3.9207   -0.7559   -0.0712 Cl        1 <0>        -0.0349
     20 Cl2         1.1056    3.8497    0.0162 Cl        1 <0>        -0.0437
     21 H1         -0.9636    1.9091    0.0261 H         1 <0>         0.1525
     22 H2          3.2956    2.0186   -0.0146 H         1 <0>         0.1552
     23 H3         -2.3269   -2.5198   -0.4636 H         1 <0>         0.1076
     24 H4         -0.9928   -2.0672   -1.5539 H         1 <0>         0.1046
     25 H5         -0.5549   -2.8476    1.3668 H         1 <0>         0.1393
     26 H6         -0.4760   -4.0198    0.0220 H         1 <0>         0.1490
     27 H7         -1.3905   -1.1800    2.2052 H         1 <0>         0.4066
@<TRIPOS>BOND
     1    1    6 ar
     2    1    2 ar
     3    1   21 1
     4    2    3 ar
     5    2   20 1
     6    3    4 ar
     7    3   22 1
     8    4    5 ar
     9    4   19 1
    10    5   10 1
    11    5    6 ar
    12    6    7 1
    13    7   18 1
    14    7    8 1
    15    7   13 1
    16    8    9 1
    17    8   23 1
    18    8   24 1
    19    9   10 1
    20    9   25 1
    21    9   26 1
    22   10   11 2
    23   10   12 2
    24   13   14 1
    25   13   15 2
    26   15   16 1
    27   16   17 2
    28   16   18 am
    29   18   27 1
@<TRIPOS>MOLECULE
CHEMBL82608__2
   28    30     0     0     0
SMALL
USER_CHARGES

@<TRIPOS>ATOM
      1 C1         -0.0168    1.3896    0.0097 C.ar      1 <0>        -0.1110
      2 C2          1.1558    2.1149    0.0024 C.ar      1 <0>         0.0240
      3 C3          2.3730    1.4579   -0.0161 C.ar      1 <0>        -0.0985
      4 C4          2.3978    0.0775   -0.0364 C.ar      1 <0>         0.0605
      5 C5          1.2160   -0.6510   -0.0323 C.ar      1 <0>        -0.6111
      6 C6          0.0021   -0.0041    0.0020 C.ar      1 <0>         0.0076
      7 C7         -1.3289   -0.6949    0.0563 C.3       1 <0>         0.1513
      8 C8         -1.3188   -2.1005   -0.5200 C.3       1 <0>        -0.1094
      9 C9         -0.3579   -2.9725    0.3025 C.3       1 <0>        -0.6181
     10 S1          1.3287   -2.4126   -0.0825 S.o2      1 <0>         2.4845
     11 O1          2.2128   -2.7528    0.9767 O.2       1 <0>        -0.9037
     12 O2          1.6545   -2.7199   -1.4311 O.2       1 <0>        -0.9092
     13 C10        -1.8236   -0.7316    1.4891 C.2       1 <0>         0.5369
     14 O3         -1.3039   -1.2941    2.4290 O.2       1 <0>        -0.4384
     15 N1         -2.9608   -0.0088    1.5007 N.am      1 <0>        -0.6718
     16 C11        -3.2501    0.4757    0.2878 C.2       1 <0>         0.7058
     17 O4         -4.2265    1.1587    0.0484 O.2       1 <0>        -0.5189
     18 N2         -2.3394    0.1230   -0.6372 N.am      1 <0>        -0.7119
     19 Cl1         3.9210   -0.7549   -0.0680 Cl        1 <0>        -0.0115
     20 Cl2         1.1047    3.8501    0.0169 Cl        1 <0>        -0.0268
     21 H1         -0.9637    1.9088    0.0261 H         1 <0>         0.1496
     22 H2          3.2955    2.0196   -0.0150 H         1 <0>         0.1646
     23 H3         -2.3233   -2.5210   -0.4733 H         1 <0>         0.1204
     24 H4         -0.9840   -2.0671   -1.5568 H         1 <0>         0.1169
     25 H5         -0.5587   -2.8456    1.3663 H         1 <0>         0.1632
     26 H6         -0.4747   -4.0197    0.0233 H         1 <0>         0.1624
     27 H7         -3.5030    0.1412    2.2909 H         1 <0>         0.4424
     28 H8         -2.3467    0.3605   -1.5777 H         1 <0>         0.4503
@<TRIPOS>BOND
     1    1    6 ar
     2    1    2 ar
     3    1   21 1
     4    2    3 ar
     5    2   20 1
     6    3    4 ar
     7    3   22 1
     8    4    5 ar
     9    4   19 1
    10    5   10 1
    11    5    6 ar
    12    6    7 1
    13    7   18 1
    14    7    8 1
    15    7   13 1
    16    8    9 1
    17    8   23 1
    18    8   24 1
    19    9   10 1
    20    9   25 1
    21    9   26 1
    22   10   11 2
    23   10   12 2
    24   13   14 2
    25   13   15 am
    26   15   16 am
    27   15   27 1
    28   16   17 2
    29   16   18 am
    30   18   28 1
@<TRIPOS>MOLECULE
CHEMBL82608__3
   27    29     0     0     0
SMALL
USER_CHARGES

@<TRIPOS>ATOM
      1 C1         -0.0168    1.3896    0.0097 C.ar      1 <0>        -0.1116
      2 C2          1.1558    2.1150    0.0024 C.ar      1 <0>         0.0229
      3 C3          2.3731    1.4583   -0.0158 C.ar      1 <0>        -0.1211
      4 C4          2.3980    0.0778   -0.0351 C.ar      1 <0>         0.0597
      5 C5          1.2162   -0.6507   -0.0311 C.ar      1 <0>        -0.6217
      6 C6          0.0021   -0.0041    0.0020 C.ar      1 <0>         0.0568
      7 C7         -1.3287   -0.6949    0.0547 C.3       1 <0>         0.1111
      8 C8         -1.3183   -2.1018   -0.5177 C.3       1 <0>        -0.0916
      9 C9         -0.3573   -2.9719    0.3069 C.3       1 <0>        -0.6091
     10 S1          1.3292   -2.4124   -0.0791 S.o2      1 <0>         2.4874
     11 O1          2.2135   -2.7511    0.9804 O.2       1 <0>        -0.9199
     12 O2          1.6548   -2.7213   -1.4274 O.2       1 <0>        -0.9324
     13 C10        -1.8314   -0.7242    1.4843 C.2       1 <0>         0.4700
     14 O3         -1.2577   -1.3441    2.5282 O.3       1 <0>        -0.6197
     15 N1         -2.9339   -0.0260    1.4968 N.2       1 <0>        -0.6558
     16 C11        -3.2430    0.4671    0.2908 C.2       1 <0>         0.6609
     17 O4         -4.2265    1.1479    0.0665 O.2       1 <0>        -0.5775
     18 N2         -2.3376    0.1218   -0.6447 N.am      1 <0>        -0.7609
     19 Cl1         3.9212   -0.7545   -0.0653 Cl        1 <0>        -0.0334
     20 Cl2         1.1044    3.8502    0.0154 Cl        1 <0>        -0.0473
     21 H1         -0.9637    1.9088    0.0261 H         1 <0>         0.1490
     22 H2          3.2955    2.0201   -0.0152 H         1 <0>         0.1546
     23 H3         -2.3228   -2.5223   -0.4699 H         1 <0>         0.1060
     24 H4         -0.9836   -2.0711   -1.5546 H         1 <0>         0.0876
     25 H5         -0.5584   -2.8427    1.3703 H         1 <0>         0.1808
     26 H6         -0.4738   -4.0197    0.0299 H         1 <0>         0.1441
     27 H7         -2.3474    0.3610   -1.5847 H         1 <0>         0.4114
@<TRIPOS>BOND
     1    1    6 ar
     2    1    2 ar
     3    1   21 1
     4    2    3 ar
     5    2   20 1
     6    3    4 ar
     7    3   22 1
     8    4    5 ar
     9    4   19 1
    10    5   10 1
    11    5    6 ar
    12    6    7 1
    13    7   18 1
    14    7    8 1
    15    7   13 1
    16    8    9 1
    17    8   23 1
    18    8   24 1
    19    9   10 1
    20    9   25 1
    21    9   26 1
    22   10   11 2
    23   10   12 2
    24   13   14 1
    25   13   15 2
    26   15   16 1
    27   16   17 2
    28   16   18 am
    29   18   27 1
@<TRIPOS>MOLECULE
CHEMBL159820
   32    34     0     0     0
SMALL
USER_CHARGES

@<TRIPOS>ATOM
      1 C1         -0.0168    1.3846    0.0097 C.ar      1 <0>        -0.0949
      2 C2          1.1766    2.0821    0.0020 C.ar      1 <0>        -0.0443
      3 C3          2.3633    1.3911   -0.0130 C.ar      1 <0>        -0.1787
      4 C4          2.4173   -0.0213   -0.0211 C.ar      1 <0>         0.0944
      5 C5          1.1830   -0.7035   -0.0126 C.ar      1 <0>        -0.0501
      6 C6          0.0021   -0.0041    0.0020 C.ar      1 <0>        -0.0264
      7 Cl1        -1.5002   -0.8740    0.0117 Cl        1 <0>        -0.0635
      8 N1          3.6750   -0.5092   -0.0362 N.2       1 <0>        -0.4882
      9 C7          4.7194    0.2667   -0.0423 C.2       1 <0>         0.0810
     10 S1          4.0833    1.8249   -0.0277 S.3       1 <0>         0.1577
     11 C8          6.1708   -0.1383   -0.0581 C.3       1 <0>         0.2010
     12 N2          6.6280   -0.2629   -1.4444 N.am      1 <0>        -0.5545
     13 C9          6.5181   -1.4447   -2.0841 C.2       1 <0>         0.5522
     14 O1          6.0405   -2.4096   -1.5149 O.2       1 <0>        -0.5181
     15 C10         6.9628   -1.5535   -3.4238 C.2       1 <0>        -0.3295
     16 C11         7.4881   -0.4683   -4.0318 C.2       1 <0>         0.2085
     17 N3          7.5819    0.7129   -3.3474 N.am      1 <0>        -0.4962
     18 C12         7.1510    0.8044   -2.0761 C.2       1 <0>         0.6968
     19 O2          7.2395    1.8649   -1.4882 O.2       1 <0>        -0.5340
     20 C13         8.1523    1.8902   -4.0068 C.3       1 <0>         0.0329
     21 C14         7.0550    2.6628   -4.6924 C.2       1 <0>         0.4858
     22 O3          5.9033    2.2667   -4.6355 O.co2     1 <0>        -0.6780
     23 O4          7.3190    3.6840   -5.3040 O.co2     1 <0>        -0.6851
     24 H1         -0.9570    1.9157    0.0260 H         1 <0>         0.1477
     25 H2          1.1758    3.1621    0.0075 H         1 <0>         0.1448
     26 H3          1.1668   -1.7833   -0.0182 H         1 <0>         0.1436
     27 H4          6.7649    0.6187    0.4538 H         1 <0>         0.1265
     28 H5          6.2864   -1.0957    0.4500 H         1 <0>         0.1327
     29 H6          6.8832   -2.4920   -3.9523 H         1 <0>         0.1663
     30 H7          7.8328   -0.5324   -5.0532 H         1 <0>         0.1722
     31 H8          8.6340    2.5253   -3.2634 H         1 <0>         0.1019
     32 H9          8.8886    1.5722   -4.7449 H         1 <0>         0.0955
@<TRIPOS>BOND
     1    1    6 ar
     2    1    2 ar
     3    1   24 1
     4    2    3 ar
     5    2   25 1
     6    3   10 1
     7    3    4 ar
     8    4    5 ar
     9    4    8 1
    10    5    6 ar
    11    5   26 1
    12    6    7 1
    13    8    9 2
    14    9   10 1
    15    9   11 1
    16   11   12 1
    17   11   27 1
    18   11   28 1
    19   12   18 am
    20   12   13 am
    21   13   14 2
    22   13   15 1
    23   15   16 2
    24   15   29 1
    25   16   17 1
    26   16   30 1
    27   17   18 am
    28   17   20 1
    29   18   19 2
    30   20   21 1
    31   20   31 1
    32   20   32 1
    33   21   22 2
    34   21   23 1
@<TRIPOS>MOLECULE
CHEMBL357435
   41    44     0     0     0
SMALL
USER_CHARGES

@<TRIPOS>ATOM
      1 C1         -0.0167    1.3790    0.0096 C.ar      1 <0>        -0.1109
      2 C2          1.1686    2.0919    0.0021 C.ar      1 <0>        -0.1282
      3 C3          2.3774    1.4259   -0.0134 C.ar      1 <0>        -0.0869
      4 C4          2.4022    0.0327   -0.0211 C.ar      1 <0>        -0.0292
      5 C5          1.2051   -0.6804   -0.0130 C.ar      1 <0>        -0.0889
      6 C6          0.0021   -0.0041    0.0020 C.ar      1 <0>        -0.1196
      7 C7          3.6987   -0.6888   -0.0383 C.2       1 <0>         0.1345
      8 C8          3.7583   -2.0770   -0.0516 C.2       1 <0>        -0.1754
      9 C9          5.0049   -2.6077   -0.0665 C.2       1 <0>        -0.2105
     10 S1          5.9988   -1.2562   -0.0621 S.3       1 <0>         0.3346
     11 N1          4.8467   -0.0436   -0.0471 N.2       1 <0>        -0.4672
     12 C10         5.4026   -4.0612   -0.0828 C.3       1 <0>         0.2186
     13 N2          5.5201   -4.5199   -1.4691 N.am      1 <0>        -0.4394
     14 C11         6.7111   -4.4195   -2.0954 C.2       1 <0>         0.5183
     15 O1          7.6781   -3.9542   -1.5190 O.2       1 <0>        -0.5373
     16 C12         6.8195   -4.8821   -3.4845 C.ar      1 <0>        -0.1338
     17 C13         8.0164   -4.8109   -4.1960 C.ar      1 <0>        -0.0562
     18 C14         8.0571   -5.2612   -5.4974 C.ar      1 <0>        -0.1276
     19 C15         6.9211   -5.7825   -6.1032 C.ar      1 <0>        -0.0924
     20 C16         5.7371   -5.8621   -5.4248 C.ar      1 <0>        -0.1007
     21 C17         5.6657   -5.4138   -4.1045 C.ar      1 <0>        -0.0436
     22 C18         4.4238   -5.4769   -3.3338 C.2       1 <0>         0.1241
     23 N3          4.3991   -5.0542   -2.1049 N.2       1 <0>        -0.1281
     24 C19         3.1744   -6.0376   -3.9628 C.3       1 <0>        -0.1333
     25 C20         2.0452   -5.9901   -2.9659 C.2       1 <0>         0.4910
     26 O2          2.2372   -5.5423   -1.8483 O.co2     1 <0>        -0.6539
     27 O3          0.9397   -6.3994   -3.2771 O.co2     1 <0>        -0.7039
     28 H1         -0.9603    1.9042    0.0260 H         1 <0>         0.1225
     29 H2          1.1482    3.1717    0.0081 H         1 <0>         0.1233
     30 H3          3.3023    1.9835   -0.0199 H         1 <0>         0.1288
     31 H4          1.2186   -1.7603   -0.0192 H         1 <0>         0.1351
     32 H5         -0.9264   -0.5558    0.0079 H         1 <0>         0.1287
     33 H6          2.8704   -2.6918   -0.0497 H         1 <0>         0.1675
     34 H7          6.3611   -4.1813    0.4222 H         1 <0>         0.1087
     35 H8          4.6443   -4.6511    0.4321 H         1 <0>         0.1208
     36 H9          8.9033   -4.4061   -3.7314 H         1 <0>         0.1381
     37 H10         8.9820   -5.2080   -6.0525 H         1 <0>         0.1300
     38 H11         6.9739   -6.1295   -7.1246 H         1 <0>         0.1300
     39 H12         4.8613   -6.2696   -5.9077 H         1 <0>         0.1401
     40 H13         2.9110   -5.4447   -4.8387 H         1 <0>         0.0858
     41 H14         3.3509   -7.0706   -4.2629 H         1 <0>         0.0865
@<TRIPOS>BOND
     1    1    6 ar
     2    1    2 ar
     3    1   28 1
     4    2    3 ar
     5    2   29 1
     6    3    4 ar
     7    3   30 1
     8    4    5 ar
     9    4    7 1
    10    5    6 ar
    11    5   31 1
    12    6   32 1
    13    7   11 2
    14    7    8 1
    15    8    9 2
    16    8   33 1
    17    9   10 1
    18    9   12 1
    19   10   11 1
    20   12   13 1
    21   12   34 1
    22   12   35 1
    23   13   23 1
    24   13   14 am
    25   14   15 2
    26   14   16 1
    27   16   21 ar
    28   16   17 ar
    29   17   18 ar
    30   17   36 1
    31   18   19 ar
    32   18   37 1
    33   19   20 ar
    34   19   38 1
    35   20   21 ar
    36   20   39 1
    37   21   22 1
    38   22   23 2
    39   22   24 1
    40   24   25 1
    41   24   40 1
    42   24   41 1
    43   25   26 2
    44   25   27 1
@<TRIPOS>MOLECULE
CHEMBL421111
   35    37     0     0     0
SMALL
USER_CHARGES

@<TRIPOS>ATOM
      1 C1          0.7333    1.4532   -0.5744 C.3       1 <0>        -0.1401
      2 C2          0.4982   -0.0463   -0.3820 C.3       1 <0>         0.0845
      3 H1          0.8791   -0.5921   -1.2452 H         1 <0>         0.0793
      4 C3         -1.0031   -0.3183   -0.2184 C.3       1 <0>        -0.1375
      5 C4         -1.2061   -1.8320   -0.1230 C.3       1 <0>         0.2055
      6 C5         -0.2358   -2.4170    0.8739 C.ar      1 <0>        -0.1853
      7 C6         -0.5049   -3.6887    1.3882 C.ar      1 <0>        -0.0490
      8 C7          0.3249   -4.2824    2.2873 C.ar      1 <0>        -0.0671
      9 C8          1.4833   -3.6089    2.7140 C.ar      1 <0>        -0.0164
     10 C9          2.3669   -4.1880    3.6405 C.ar      1 <0>        -0.1139
     11 C10         3.4781   -3.5038    4.0278 C.ar      1 <0>        -0.1045
     12 C11         3.7535   -2.2360    3.5189 C.ar      1 <0>        -0.1315
     13 C12         2.9189   -1.6450    2.6202 C.ar      1 <0>        -0.0774
     14 C13         1.7623   -2.3210    2.1984 C.ar      1 <0>        -0.0619
     15 C14         0.8751   -1.7324    1.2677 C.ar      1 <0>         0.1693
     16 O1          1.1634   -0.4905    0.8009 O.3       1 <0>        -0.3105
     17 Cl1        -0.0438   -5.8623    2.9051 Cl        1 <0>        -0.0702
     18 C15        -0.9681   -2.4645   -1.4957 C.3       1 <0>        -0.2116
     19 C16        -1.9809   -1.9323   -2.4765 C.2       1 <0>         0.4945
     20 O2         -2.8893   -1.2181   -2.0875 O.co2     1 <0>        -0.6702
     21 O3         -1.8920   -2.2159   -3.6589 O.co2     1 <0>        -0.7064
     22 O4         -2.5436   -2.1061    0.2991 O.3       1 <0>        -0.5197
     23 H2          1.8015    1.6430   -0.6791 H         1 <0>         0.0645
     24 H3          0.2148    1.7900   -1.4721 H         1 <0>         0.0838
     25 H4          0.3511    1.9949    0.2908 H         1 <0>         0.0660
     26 H5         -1.3666    0.1596    0.6912 H         1 <0>         0.0737
     27 H6         -1.5437    0.0717   -1.0808 H         1 <0>         0.1210
     28 H7         -1.3923   -4.2120    1.0638 H         1 <0>         0.1328
     29 H8          2.1654   -5.1697    4.0431 H         1 <0>         0.1318
     30 H9          4.1562   -3.9499    4.7403 H         1 <0>         0.1236
     31 H10         4.6421   -1.7144    3.8426 H         1 <0>         0.1239
     32 H11         3.1451   -0.6622    2.2337 H         1 <0>         0.1351
     33 H12         0.0361   -2.2174   -1.8403 H         1 <0>         0.0627
     34 H13        -1.0700   -3.5470   -1.4195 H         1 <0>         0.0615
     35 H14        -2.7446   -3.0483    0.3817 H         1 <0>         0.3598
@<TRIPOS>BOND
     1    1    2 1
     2    1   23 1
     3    1   24 1
     4    1   25 1
     5    2    3 1
     6    2   16 1
     7    2    4 1
     8    4    5 1
     9    4   26 1
    10    4   27 1
    11    5    6 1
    12    5   18 1
    13    5   22 1
    14    6   15 ar
    15    6    7 ar
    16    7    8 ar
    17    7   28 1
    18    8    9 ar
    19    8   17 1
    20    9   14 ar
    21    9   10 ar
    22   10   11 ar
    23   10   29 1
    24   11   12 ar
    25   11   30 1
    26   12   13 ar
    27   12   31 1
    28   13   14 ar
    29   13   32 1
    30   14   15 ar
    31   15   16 1
    32   18   19 1
    33   18   33 1
    34   18   34 1
    35   19   20 2
    36   19   21 1
    37   22   35 1
@<TRIPOS>MOLECULE
CHEMBL1089385
   55    59     0     0     0
SMALL
USER_CHARGES

@<TRIPOS>ATOM
      1 C1         -0.0132    1.3830    0.0589 C.ar      1 <0>        -0.1194
      2 C2          0.4565    0.7547    1.1975 C.ar      1 <0>        -0.1047
      3 C3          1.6613    0.0794    1.1681 C.ar      1 <0>        -0.1260
      4 C4          2.3998    0.0315   -0.0054 C.ar      1 <0>         0.0879
      5 C5          1.9261    0.6623   -1.1466 C.ar      1 <0>        -0.1171
      6 C6          0.7210    1.3367   -1.1118 C.ar      1 <0>        -0.1036
      7 O1          3.5857   -0.6320   -0.0368 O.3       1 <0>        -0.3012
      8 C7          3.5616   -1.9710    0.0597 C.2       1 <0>         0.4540
      9 O2          2.5051   -2.5573    0.0657 O.2       1 <0>        -0.4675
     10 C8          4.8522   -2.7425    0.1604 C.3       1 <0>        -0.0663
     11 C9          4.5504   -4.2158    0.2570 C.ar      1 <0>        -0.0756
     12 C10         4.3652   -4.8037    1.4943 C.ar      1 <0>        -0.1083
     13 C11         4.0884   -6.1552    1.5829 C.ar      1 <0>        -0.0978
     14 C12         3.9964   -6.9186    0.4342 C.ar      1 <0>        -0.1175
     15 C13         4.1808   -6.3305   -0.8032 C.ar      1 <0>        -0.0780
     16 C14         4.4533   -4.9782   -0.8920 C.ar      1 <0>        -0.0966
     17 C15         3.6957   -8.3921    0.5308 C.3       1 <0>         0.1784
     18 N1          2.2458   -8.5983    0.4901 N.pl3     1 <0>        -0.5021
     19 C16         1.3958   -8.6249    1.5898 C.ar      1 <0>         0.1447
     20 C17         1.6143   -8.4803    2.9537 C.ar      1 <0>        -0.1216
     21 C18         0.5523   -8.5550    3.8324 C.ar      1 <0>        -0.0898
     22 C19        -0.7309   -8.7735    3.3603 C.ar      1 <0>        -0.1263
     23 C20        -0.9589   -8.9191    2.0066 C.ar      1 <0>        -0.0740
     24 C21         0.1024   -8.8451    1.1145 C.ar      1 <0>         0.0681
     25 N2          0.1774   -8.9508   -0.2729 N.am      1 <0>        -0.4920
     26 C22         1.4876   -8.7938   -0.6486 C.2       1 <0>         0.5209
     27 N3          1.8472   -8.8424   -1.9056 N.2       1 <0>        -0.2986
     28 N4          0.9230   -9.0523   -2.9329 N.am      1 <0>        -0.3535
     29 C23        -0.3844   -9.2112   -2.6317 C.2       1 <0>         0.4800
     30 O3         -1.2119   -9.3955   -3.5058 O.2       1 <0>        -0.4802
     31 C24        -0.7801   -9.1614   -1.2019 C.2       1 <0>         0.5189
     32 O4         -1.9438   -9.2968   -0.8746 O.2       1 <0>        -0.4580
     33 C25         1.3691   -9.0991   -4.3276 C.3       1 <0>         0.0623
     34 C26         1.3257   -7.7123   -4.9157 C.2       1 <0>         0.4893
     35 O5          0.9563   -6.7720   -4.2332 O.co2     1 <0>        -0.6771
     36 O6          1.6599   -7.5307   -6.0741 O.co2     1 <0>        -0.6907
     37 H1         -0.9573    1.9069    0.0828 H         1 <0>         0.1282
     38 H2         -0.1187    0.7923    2.1108 H         1 <0>         0.1294
     39 H3          2.0281   -0.4106    2.0579 H         1 <0>         0.1252
     40 H4          2.4993    0.6267   -2.0612 H         1 <0>         0.1329
     41 H5          0.3518    1.8280   -2.0000 H         1 <0>         0.1325
     42 H6          5.4588   -2.5531   -0.7253 H         1 <0>         0.1192
     43 H7          5.3974   -2.4242    1.0490 H         1 <0>         0.1174
     44 H8          4.4370   -4.2072    2.3918 H         1 <0>         0.1211
     45 H9          3.9443   -6.6146    2.5496 H         1 <0>         0.1224
     46 H10         4.1093   -6.9271   -1.7006 H         1 <0>         0.1355
     47 H11         4.5937   -4.5180   -1.8589 H         1 <0>         0.1264
     48 H12         4.1604   -8.9135   -0.3060 H         1 <0>         0.1087
     49 H13         4.0921   -8.7832    1.4679 H         1 <0>         0.1031
     50 H14         2.6136   -8.3101    3.3263 H         1 <0>         0.1331
     51 H15         0.7231   -8.4428    4.8929 H         1 <0>         0.1352
     52 H16        -1.5567   -8.8307    4.0540 H         1 <0>         0.1347
     53 H17        -1.9610   -9.0901    1.6421 H         1 <0>         0.1381
     54 H18         2.3894   -9.4800   -4.3700 H         1 <0>         0.0963
     55 H19         0.7119   -9.7561   -4.8973 H         1 <0>         0.0997
@<TRIPOS>BOND
     1    1    6 ar
     2    1    2 ar
     3    1   37 1
     4    2    3 ar
     5    2   38 1
     6    3    4 ar
     7    3   39 1
     8    4    5 ar
     9    4    7 1
    10    5    6 ar
    11    5   40 1
    12    6   41 1
    13    7    8 1
    14    8    9 2
    15    8   10 1
    16   10   11 1
    17   10   42 1
    18   10   43 1
    19   11   16 ar
    20   11   12 ar
    21   12   13 ar
    22   12   44 1
    23   13   14 ar
    24   13   45 1
    25   14   15 ar
    26   14   17 1
    27   15   16 ar
    28   15   46 1
    29   16   47 1
    30   17   18 1
    31   17   48 1
    32   17   49 1
    33   18   26 1
    34   18   19 1
    35   19   24 ar
    36   19   20 ar
    37   20   21 ar
    38   20   50 1
    39   21   22 ar
    40   21   51 1
    41   22   23 ar
    42   22   52 1
    43   23   24 ar
    44   23   53 1
    45   24   25 1
    46   25   31 am
    47   25   26 1
    48   26   27 2
    49   27   28 1
    50   28   29 am
    51   28   33 1
    52   29   30 2
    53   29   31 1
    54   31   32 2
    55   33   34 1
    56   33   54 1
    57   33   55 1
    58   34   35 2
    59   34   36 1
@<TRIPOS>MOLECULE
CHEMBL44743
   39    41     0     0     0
SMALL
USER_CHARGES

@<TRIPOS>ATOM
      1 C1         -0.0182    1.3762   -0.0069 C.ar      1 <0>        -0.1303
      2 C2          0.7531    1.3605   -1.1545 C.ar      1 <0>        -0.1186
      3 C3          1.9602    0.6895   -1.1679 C.ar      1 <0>        -0.1282
      4 C4          2.3993    0.0305   -0.0270 C.ar      1 <0>         0.1631
      5 C5          1.6226    0.0486    1.1240 C.ar      1 <0>        -0.0871
      6 C6          0.4162    0.7210    1.1308 C.ar      1 <0>        -0.1158
      7 N1          3.6215   -0.6506   -0.0375 N.am      1 <0>        -0.5398
      8 C7          4.8760    0.0975   -0.1508 C.3       1 <0>         0.0336
      9 C8          5.3742    0.4544    1.2259 C.2       1 <0>         0.4791
     10 O1          4.7402    0.1154    2.2105 O.co2     1 <0>        -0.6757
     11 O2          6.4114    1.0822    1.3551 O.co2     1 <0>        -0.6945
     12 C9          3.6447   -1.9949    0.0568 C.2       1 <0>         0.5333
     13 O3          2.6055   -2.6203    0.0643 O.2       1 <0>        -0.5489
     14 C10         4.9618   -2.7209    0.1528 C.3       1 <0>        -0.1350
     15 C11         4.7083   -4.2267    0.2488 C.3       1 <0>        -0.0237
     16 C12         6.0253   -4.9527    0.3448 C.2       1 <0>         0.1357
     17 N2          6.6842   -5.2708    1.4206 N.2       1 <0>        -0.5034
     18 C13         7.8625   -5.9266    1.3742 C.ar      1 <0>         0.1178
     19 C14         8.7059   -6.3476    2.4266 C.ar      1 <0>         0.1130
     20 C15         9.8794   -7.0102    2.1559 C.ar      1 <0>         0.1089
     21 C16        10.2710   -7.2852    0.8509 C.ar      1 <0>        -0.1511
     22 C17         9.4656   -6.8853   -0.2008 C.ar      1 <0>         0.1880
     23 C18         8.2893   -6.2215    0.0610 C.ar      1 <0>        -0.2198
     24 S1          6.9730   -5.5420   -0.9151 S.3       1 <0>         0.1565
     25 F1          9.8314   -7.1451   -1.4751 F         1 <0>        -0.1148
     26 F2         10.6690   -7.4021    3.1798 F         1 <0>        -0.1130
     27 F3          8.3569   -6.0968    3.7074 F         1 <0>        -0.1053
     28 H1         -0.9598    1.9051    0.0023 H         1 <0>         0.1182
     29 H2          0.4111    1.8732   -2.0414 H         1 <0>         0.1204
     30 H3          2.5618    0.6770   -2.0647 H         1 <0>         0.1198
     31 H4          1.9611   -0.4633    2.0127 H         1 <0>         0.1291
     32 H5         -0.1883    0.7354    2.0256 H         1 <0>         0.1214
     33 H6          5.6202   -0.5160   -0.6588 H         1 <0>         0.0802
     34 H7          4.7049    1.0093   -0.7230 H         1 <0>         0.0803
     35 H8          5.5591   -2.5088   -0.7339 H         1 <0>         0.0956
     36 H9          5.4977   -2.3854    1.0407 H         1 <0>         0.1140
     37 H10         4.1109   -4.4388    1.1355 H         1 <0>         0.1165
     38 H11         4.1723   -4.5622   -0.6391 H         1 <0>         0.1078
     39 H12        11.1971   -7.8067    0.6592 H         1 <0>         0.1729
@<TRIPOS>BOND
     1    1    6 ar
     2    1    2 ar
     3    1   28 1
     4    2    3 ar
     5    2   29 1
     6    3    4 ar
     7    3   30 1
     8    4    5 ar
     9    4    7 1
    10    5    6 ar
    11    5   31 1
    12    6   32 1
    13    7    8 1
    14    7   12 am
    15    8    9 1
    16    8   33 1
    17    8   34 1
    18    9   10 2
    19    9   11 1
    20   12   13 2
    21   12   14 1
    22   14   15 1
    23   14   35 1
    24   14   36 1
    25   15   16 1
    26   15   37 1
    27   15   38 1
    28   16   24 1
    29   16   17 2
    30   17   18 1
    31   18   23 ar
    32   18   19 ar
    33   19   20 ar
    34   19   27 1
    35   20   21 ar
    36   20   26 1
    37   21   22 ar
    38   21   39 1
    39   22   23 ar
    40   22   25 1
    41   23   24 1
@<TRIPOS>MOLECULE
CHEMBL428672
   35    37     0     0     0
SMALL
USER_CHARGES

@<TRIPOS>ATOM
      1 C1         -0.0187    1.5258    0.0104 C.3       1 <0>        -0.1475
      2 C2          0.0021   -0.0041    0.0020 C.3       1 <0>         0.0673
      3 O1          0.6932   -0.4774    1.1597 O.3       1 <0>        -0.3413
      4 C3          0.8010   -1.8121    1.3043 C.2       1 <0>         0.4941
      5 O2          0.2694   -2.6347    0.3800 O.3       1 <0>        -0.6440
      6 C4          1.4560   -2.3366    2.3994 C.2       1 <0>        -0.5020
      7 C5          1.6575   -3.6920    2.6902 C.2       1 <0>         0.3801
      8 O3          1.2814   -4.6314    2.0124 O.2       1 <0>        -0.4810
      9 C6          2.4117   -3.7857    3.9705 C.2       1 <0>         0.4843
     10 O4          2.7498   -4.8219    4.5049 O.2       1 <0>        -0.5314
     11 N1          2.6640   -2.5546    4.4474 N.am      1 <0>        -0.7086
     12 C7          2.1059   -1.5657    3.5227 C.3       1 <0>         0.2917
     13 C8          1.0599   -0.7129    4.2421 C.3       1 <0>        -0.1572
     14 C9          1.7922    0.2531    5.1830 C.3       1 <0>         0.0603
     15 O5          2.5819    1.1420    4.3921 O.3       1 <0>        -0.3139
     16 C10         3.3843    0.6040    3.4365 C.ar      1 <0>         0.1309
     17 C11         3.2023   -0.6891    2.9762 C.ar      1 <0>        -0.1114
     18 C12         4.0384   -1.1958    1.9960 C.ar      1 <0>        -0.0824
     19 C13         5.0576   -0.4175    1.4772 C.ar      1 <0>         0.0547
     20 C14         5.2440    0.8741    1.9393 C.ar      1 <0>        -0.1221
     21 C15         4.4110    1.3835    2.9148 C.ar      1 <0>        -0.1323
     22 F1          5.8705   -0.9174    0.5209 F         1 <0>        -0.1451
     23 H1          1.0039    1.9031    0.0027 H         1 <0>         0.0603
     24 H2         -0.5459    1.8868   -0.8726 H         1 <0>         0.0680
     25 H3         -0.5289    1.8773    0.9072 H         1 <0>         0.0598
     26 H4         -1.0205   -0.3814    0.0098 H         1 <0>         0.0559
     27 H5          0.5123   -0.3556   -0.8948 H         1 <0>         0.0557
     28 H6          0.4815   -0.1470    3.5119 H         1 <0>         0.0974
     29 H7          0.3956   -1.3558    4.8197 H         1 <0>         0.0859
     30 H8          1.0654    0.8237    5.7612 H         1 <0>         0.1061
     31 H9          2.4376   -0.3100    5.8572 H         1 <0>         0.0577
     32 H10         3.8945   -2.2035    1.6350 H         1 <0>         0.1368
     33 H11         6.0406    1.4824    1.5372 H         1 <0>         0.1354
     34 H12         4.5572    2.3913    3.2744 H         1 <0>         0.1351
     35 H13         3.1414   -2.3539    5.2676 H         1 <0>         0.4028
@<TRIPOS>BOND
     1    1    2 1
     2    1   23 1
     3    1   24 1
     4    1   25 1
     5    2    3 1
     6    2   26 1
     7    2   27 1
     8    3    4 1
     9    4    5 1
    10    4    6 2
    11    6   12 1
    12    6    7 1
    13    7    8 2
    14    7    9 1
    15    9   10 2
    16    9   11 am
    17   11   12 1
    18   11   35 1
    19   12   17 1
    20   12   13 1
    21   13   14 1
    22   13   28 1
    23   13   29 1
    24   14   15 1
    25   14   30 1
    26   14   31 1
    27   15   16 1
    28   16   21 ar
    29   16   17 ar
    30   17   18 ar
    31   18   19 ar
    32   18   32 1
    33   19   20 ar
    34   19   22 1
    35   20   21 ar
    36   20   33 1
    37   21   34 1
@<TRIPOS>MOLECULE
CHEMBL428672__1
   35    37     0     0     0
SMALL
USER_CHARGES

@<TRIPOS>ATOM
      1 C1         -0.0187    1.5258    0.0104 C.3       1 <0>        -0.1476
      2 C2          0.0021   -0.0041    0.0020 C.3       1 <0>         0.0673
      3 O1          0.6932   -0.4774    1.1597 O.3       1 <0>        -0.3413
      4 C3          0.8010   -1.8121    1.3043 C.2       1 <0>         0.4941
      5 O2          0.2694   -2.6347    0.3800 O.3       1 <0>        -0.6440
      6 C4          1.4560   -2.3366    2.3994 C.2       1 <0>        -0.5021
      7 C5          1.6575   -3.6920    2.6902 C.2       1 <0>         0.3801
      8 O3          1.2815   -4.6314    2.0124 O.2       1 <0>        -0.4810
      9 C6          2.4115   -3.7857    3.9706 C.2       1 <0>         0.4842
     10 O4          2.7496   -4.8220    4.5050 O.2       1 <0>        -0.5314
     11 N1          2.6636   -2.5546    4.4476 N.am      1 <0>        -0.7085
     12 C7          2.1059   -1.5657    3.5227 C.3       1 <0>         0.2918
     13 C8          3.2197   -0.6766    2.9676 C.3       1 <0>        -0.1573
     14 C9          3.6654    0.2845    4.0776 C.3       1 <0>         0.0604
     15 O5          2.5695    1.1418    4.3994 O.3       1 <0>        -0.3140
     16 C10         1.3589    0.5700    4.6317 C.ar      1 <0>         0.1307
     17 C11         1.0762   -0.7248    4.2308 C.ar      1 <0>        -0.1112
     18 C12        -0.1730   -1.2666    4.4812 C.ar      1 <0>        -0.0822
     19 C13        -1.1388   -0.5216    5.1338 C.ar      1 <0>         0.0546
     20 C14        -0.8566    0.7716    5.5394 C.ar      1 <0>        -0.1222
     21 C15         0.3869    1.3159    5.2895 C.ar      1 <0>        -0.1323
     22 F1         -2.3563   -1.0553    5.3748 F         1 <0>        -0.1452
     23 H1          1.0039    1.9031    0.0027 H         1 <0>         0.0599
     24 H2         -0.5459    1.8868   -0.8726 H         1 <0>         0.0680
     25 H3         -0.5289    1.8773    0.9072 H         1 <0>         0.0603
     26 H4         -1.0205   -0.3814    0.0098 H         1 <0>         0.0557
     27 H5          0.5123   -0.3556   -0.8948 H         1 <0>         0.0559
     28 H6          4.0621   -1.2942    2.6560 H         1 <0>         0.0857
     29 H7          2.8459   -0.1073    2.1166 H         1 <0>         0.0976
     30 H8          3.9576   -0.2844    4.9602 H         1 <0>         0.0577
     31 H9          4.5083    0.8815    3.7295 H         1 <0>         0.1061
     32 H10        -0.3946   -2.2753    4.1653 H         1 <0>         0.1369
     33 H11        -1.6088    1.3541    6.0504 H         1 <0>         0.1353
     34 H12         0.6059    2.3250    5.6061 H         1 <0>         0.1351
     35 H13         3.1407   -2.3539    5.2680 H         1 <0>         0.4028
@<TRIPOS>BOND
     1    1    2 1
     2    1   23 1
     3    1   24 1
     4    1   25 1
     5    2    3 1
     6    2   26 1
     7    2   27 1
     8    3    4 1
     9    4    5 1
    10    4    6 2
    11    6   12 1
    12    6    7 1
    13    7    8 2
    14    7    9 1
    15    9   10 2
    16    9   11 am
    17   11   12 1
    18   11   35 1
    19   12   17 1
    20   12   13 1
    21   13   14 1
    22   13   28 1
    23   13   29 1
    24   14   15 1
    25   14   30 1
    26   14   31 1
    27   15   16 1
    28   16   21 ar
    29   16   17 ar
    30   17   18 ar
    31   18   19 ar
    32   18   32 1
    33   19   20 ar
    34   19   22 1
    35   20   21 ar
    36   20   33 1
    37   21   34 1
@<TRIPOS>MOLECULE
CHEMBL292723
   28    30     0     0     0
SMALL
USER_CHARGES

@<TRIPOS>ATOM
      1 C1         -0.0178    1.4608    0.0101 C.3       1 <0>         0.1024
      2 N1          0.0021   -0.0041    0.0020 N.am      1 <0>        -0.6022
      3 C2          0.0059   -0.6864   -1.1617 C.2       1 <0>         0.7149
      4 O1         -0.0063   -0.0603   -2.2039 O.2       1 <0>        -0.5482
      5 N2          0.0232   -2.0247   -1.2173 N.am      1 <0>        -0.6568
      6 C3          0.0337   -2.8404   -0.0849 C.ar      1 <0>         0.2010
      7 C4          0.0471   -4.2230   -0.2021 C.ar      1 <0>        -0.1413
      8 C5          0.0554   -5.0100    0.9329 C.ar      1 <0>        -0.0475
      9 C6          0.0508   -4.4264    2.1879 C.ar      1 <0>        -0.0610
     10 C7          0.0386   -3.0463    2.3106 C.ar      1 <0>        -0.0380
     11 C8          0.0303   -2.2605    1.1820 C.ar      1 <0>        -0.1450
     12 C9          0.0242   -0.7586    1.2574 C.3       1 <0>         0.3947
     13 C10        -1.1617   -0.3334    2.0863 C.2       1 <0>         0.5260
     14 O2         -2.3351   -0.4915    1.8255 O.2       1 <0>        -0.4308
     15 N3         -0.6395    0.2604    3.1804 N.am      1 <0>        -0.6805
     16 C11         0.6991    0.2638    3.1473 C.2       1 <0>         0.7071
     17 O3          1.3959    0.7425    4.0204 O.2       1 <0>        -0.5207
     18 N4          1.1866   -0.3236    2.0365 N.am      1 <0>        -0.7222
     19 Cl1         0.0597   -5.4239    3.6087 Cl        1 <0>        -0.0491
     20 H1          1.0048    1.8381    0.0023 H         1 <0>         0.0724
     21 H2         -0.5450    1.8219   -0.8730 H         1 <0>         0.0984
     22 H3         -0.5280    1.8123    0.9069 H         1 <0>         0.0694
     23 H4          0.0283   -2.4487   -2.0897 H         1 <0>         0.4319
     24 H5          0.0506   -4.6829   -1.1793 H         1 <0>         0.1509
     25 H6          0.0652   -6.0861    0.8407 H         1 <0>         0.1505
     26 H7          0.0361   -2.5893    3.2891 H         1 <0>         0.1398
     27 H8         -1.1682    0.6381    3.9007 H         1 <0>         0.4388
     28 H9          2.1206   -0.4359    1.7999 H         1 <0>         0.4448
@<TRIPOS>BOND
     1    1    2 1
     2    1   20 1
     3    1   21 1
     4    1   22 1
     5    2   12 1
     6    2    3 am
     7    3    4 2
     8    3    5 am
     9    5    6 1
    10    5   23 1
    11    6   11 ar
    12    6    7 ar
    13    7    8 ar
    14    7   24 1
    15    8    9 ar
    16    8   25 1
    17    9   10 ar
    18    9   19 1
    19   10   11 ar
    20   10   26 1
    21   11   12 1
    22   12   18 1
    23   12   13 1
    24   13   14 2
    25   13   15 am
    26   15   16 am
    27   15   27 1
    28   16   17 2
    29   16   18 am
    30   18   28 1
@<TRIPOS>MOLECULE
CHEMBL292723__1
   27    29     0     0     0
SMALL
USER_CHARGES

@<TRIPOS>ATOM
      1 C1         -0.0178    1.4608    0.0101 C.3       1 <0>         0.1145
      2 N1          0.0021   -0.0041    0.0020 N.am      1 <0>        -0.5893
      3 C2          0.0060   -0.6866   -1.1617 C.2       1 <0>         0.7113
      4 O1         -0.0054   -0.0608   -2.2041 O.2       1 <0>        -0.5805
      5 N2          0.0225   -2.0249   -1.2168 N.am      1 <0>        -0.6607
      6 C3          0.0337   -2.8406   -0.0844 C.ar      1 <0>         0.1842
      7 C4          0.0475   -4.2232   -0.2013 C.ar      1 <0>        -0.1518
      8 C5          0.0568   -5.0099    0.9340 C.ar      1 <0>        -0.0694
      9 C6          0.0539   -4.4261    2.1888 C.ar      1 <0>        -0.0619
     10 C7          0.0414   -3.0460    2.3112 C.ar      1 <0>        -0.0355
     11 C8          0.0314   -2.2605    1.1825 C.ar      1 <0>        -0.0971
     12 C9          0.0242   -0.7587    1.2572 C.3       1 <0>         0.3499
     13 C10        -1.1583   -0.3316    2.0888 C.2       1 <0>         0.4613
     14 O2         -2.4576   -0.5079    1.7985 O.3       1 <0>        -0.6180
     15 N3         -0.6595    0.2451    3.1511 N.2       1 <0>        -0.6662
     16 C11         0.6804    0.2614    3.1429 C.2       1 <0>         0.6627
     17 O3          1.3602    0.7463    4.0281 O.2       1 <0>        -0.5791
     18 N4          1.1870   -0.3234    2.0370 N.am      1 <0>        -0.7708
     19 Cl1         0.0652   -5.4232    3.6098 Cl        1 <0>        -0.0681
     20 H1          1.0048    1.8381    0.0023 H         1 <0>         0.0556
     21 H2         -0.5450    1.8219   -0.8730 H         1 <0>         0.0826
     22 H3         -0.5280    1.8123    0.9069 H         1 <0>         0.0770
     23 H4          0.0265   -2.4492   -2.0891 H         1 <0>         0.4218
     24 H5          0.0506   -4.6834   -1.1784 H         1 <0>         0.1400
     25 H6          0.0661   -6.0860    0.8420 H         1 <0>         0.1399
     26 H7          0.0395   -2.5887    3.2896 H         1 <0>         0.1409
     27 H8          2.1230   -0.4323    1.8065 H         1 <0>         0.4068
@<TRIPOS>BOND
     1    1    2 1
     2    1   20 1
     3    1   21 1
     4    1   22 1
     5    2   12 1
     6    2    3 am
     7    3    4 2
     8    3    5 am
     9    5    6 1
    10    5   23 1
    11    6   11 ar
    12    6    7 ar
    13    7    8 ar
    14    7   24 1
    15    8    9 ar
    16    8   25 1
    17    9   10 ar
    18    9   19 1
    19   10   11 ar
    20   10   26 1
    21   11   12 1
    22   12   18 1
    23   12   13 1
    24   13   14 1
    25   13   15 2
    26   15   16 1
    27   16   17 2
    28   16   18 am
    29   18   27 1
@<TRIPOS>MOLECULE
CHEMBL292486
   40    44     0     0     0
SMALL
USER_CHARGES

@<TRIPOS>ATOM
      1 C1         -0.0166    1.3759    0.0096 C.ar      1 <0>        -0.1383
      2 C2          1.1674    2.0924    0.0021 C.ar      1 <0>        -0.0719
      3 C3          2.3845    1.4303   -0.0142 C.ar      1 <0>        -0.1146
      4 C4          2.4149    0.0573   -0.0218 C.ar      1 <0>         0.0040
      5 C5          1.2222   -0.6781   -0.0131 C.ar      1 <0>        -0.1497
      6 C6          0.0021   -0.0041    0.0020 C.ar      1 <0>        -0.0428
      7 C7          1.2814   -2.1507   -0.0191 C.2       1 <0>         0.5751
      8 O1          0.2396   -2.7760   -0.0137 O.2       1 <0>        -0.5016
      9 N1          2.4382   -2.8282   -0.0309 N.am      1 <0>        -0.5603
     10 C8          3.6414   -2.2201   -0.0400 C.2       1 <0>         0.5611
     11 O2          4.6608   -2.8761   -0.0495 O.2       1 <0>        -0.4565
     12 C9          3.7025   -0.7162   -0.0391 C.3       1 <0>        -0.1552
     13 C10         4.5481   -0.2730    1.1639 C.3       1 <0>        -0.1553
     14 C11         5.7510    0.3771    0.5095 C.2       1 <0>         0.4793
     15 O3          6.7856    0.9256    1.1642 O.3       1 <0>        -0.6318
     16 N2          5.6265    0.3211   -0.7845 N.2       1 <0>        -0.6766
     17 C12         4.5156   -0.2705   -1.2268 C.2       1 <0>         0.5435
     18 O4          4.2110   -0.4249   -2.3919 O.2       1 <0>        -0.5197
     19 C13         2.3929   -4.2925   -0.0335 C.3       1 <0>         0.1818
     20 C14         2.3646   -4.7917   -1.4551 C.2       1 <0>         0.0768
     21 N3          3.3769   -5.0931   -2.2148 N.2       1 <0>        -0.4815
     22 C15         3.2200   -5.5337   -3.4801 C.ar      1 <0>         0.0806
     23 C16         4.1886   -5.9026   -4.4368 C.ar      1 <0>        -0.0523
     24 C17         3.8127   -6.3254   -5.6749 C.ar      1 <0>        -0.1133
     25 C18         2.4761   -6.4091   -6.0401 C.ar      1 <0>        -0.0972
     26 C19         1.4978   -6.0566   -5.1294 C.ar      1 <0>        -0.0662
     27 C20         1.8670   -5.6286   -3.8772 C.ar      1 <0>        -0.1709
     28 S1          1.0161   -5.0923   -2.4163 S.3       1 <0>         0.1145
     29 H1         -0.9609    1.8998    0.0260 H         1 <0>         0.1331
     30 H2          1.1426    3.1721    0.0087 H         1 <0>         0.1341
     31 H3          3.3066    1.9924   -0.0213 H         1 <0>         0.1366
     32 H4         -0.9243   -0.5592    0.0077 H         1 <0>         0.1398
     33 H5          4.0037    0.4482    1.7735 H         1 <0>         0.1010
     34 H6          4.8512   -1.1334    1.7605 H         1 <0>         0.0969
     35 H7          3.2757   -4.6842    0.4717 H         1 <0>         0.1306
     36 H8          1.4967   -4.6291    0.4878 H         1 <0>         0.1281
     37 H9          5.2375   -5.8488   -4.1850 H         1 <0>         0.1343
     38 H10         4.5728   -6.6022   -6.3905 H         1 <0>         0.1339
     39 H11         2.2025   -6.7469   -7.0287 H         1 <0>         0.1372
     40 H12         0.4539   -6.1170   -5.3995 H         1 <0>         0.1332
@<TRIPOS>BOND
     1    1    6 ar
     2    1    2 ar
     3    1   29 1
     4    2    3 ar
     5    2   30 1
     6    3    4 ar
     7    3   31 1
     8    4   12 1
     9    4    5 ar
    10    5    6 ar
    11    5    7 1
    12    6   32 1
    13    7    8 2
    14    7    9 am
    15    9   10 am
    16    9   19 1
    17   10   11 2
    18   10   12 1
    19   12   17 1
    20   12   13 1
    21   13   14 1
    22   13   33 1
    23   13   34 1
    24   14   15 1
    25   14   16 2
    26   16   17 1
    27   17   18 2
    28   19   20 1
    29   19   35 1
    30   19   36 1
    31   20   28 1
    32   20   21 2
    33   21   22 1
    34   22   27 ar
    35   22   23 ar
    36   23   24 ar
    37   23   37 1
    38   24   25 ar
    39   24   38 1
    40   25   26 ar
    41   25   39 1
    42   26   27 ar
    43   26   40 1
    44   27   28 1
@<TRIPOS>MOLECULE
CHEMBL292486__1
   40    44     0     0     0
SMALL
USER_CHARGES

@<TRIPOS>ATOM
      1 C1         -0.0166    1.3759    0.0096 C.ar      1 <0>        -0.1383
      2 C2          1.1674    2.0924    0.0021 C.ar      1 <0>        -0.0718
      3 C3          2.3845    1.4302   -0.0130 C.ar      1 <0>        -0.1145
      4 C4          2.4150    0.0573   -0.0208 C.ar      1 <0>         0.0040
      5 C5          1.2222   -0.6781   -0.0138 C.ar      1 <0>        -0.1496
      6 C6          0.0021   -0.0041    0.0020 C.ar      1 <0>        -0.0427
      7 C7          1.2814   -2.1506   -0.0248 C.2       1 <0>         0.5753
      8 O1          0.2396   -2.7760   -0.0168 O.2       1 <0>        -0.5018
      9 N1          2.4381   -2.8281   -0.0439 N.am      1 <0>        -0.5596
     10 C8          3.6412   -2.2201   -0.0517 C.2       1 <0>         0.5613
     11 O2          4.6606   -2.8760   -0.0705 O.2       1 <0>        -0.4563
     12 C9          3.7025   -0.7162   -0.0374 C.3       1 <0>        -0.1544
     13 C10         4.5242   -0.2594   -1.2518 C.3       1 <0>        -0.1554
     14 C11         5.7399    0.3834   -0.6141 C.2       1 <0>         0.4806
     15 O3          6.7612    0.9397   -1.2829 O.3       1 <0>        -0.6307
     16 N2          5.6410    0.3128    0.6815 N.2       1 <0>        -0.6762
     17 C12         4.5390   -0.2839    1.1390 C.2       1 <0>         0.5438
     18 O4          4.2568   -0.4500    2.3081 O.2       1 <0>        -0.5207
     19 C13         2.3926   -4.2923   -0.0563 C.3       1 <0>         0.1806
     20 C14         2.3609   -4.7819   -1.4812 C.2       1 <0>         0.0795
     21 N3          3.3715   -5.0782   -2.2453 N.2       1 <0>        -0.4846
     22 C15         3.2115   -5.5102   -3.5132 C.ar      1 <0>         0.0789
     23 C16         4.1779   -5.8727   -4.4747 C.ar      1 <0>        -0.0539
     24 C17         3.7990   -6.2871   -5.7147 C.ar      1 <0>        -0.1127
     25 C18         2.4616   -6.3682   -6.0773 C.ar      1 <0>        -0.0972
     26 C19         1.4855   -6.0218   -5.1619 C.ar      1 <0>        -0.0656
     27 C20         1.8575   -5.6024   -3.9078 C.ar      1 <0>        -0.1727
     28 S1          1.0101   -5.0759   -2.4412 S.3       1 <0>         0.1167
     29 H1         -0.9609    1.8998    0.0260 H         1 <0>         0.1332
     30 H2          1.1426    3.1721    0.0078 H         1 <0>         0.1341
     31 H3          3.3067    1.9924   -0.0190 H         1 <0>         0.1366
     32 H4         -0.9243   -0.5592    0.0086 H         1 <0>         0.1399
     33 H5          4.8154   -1.1130   -1.8639 H         1 <0>         0.0952
     34 H6          3.9679    0.4685   -1.8424 H         1 <0>         0.0995
     35 H7          3.2767   -4.6875    0.4441 H         1 <0>         0.1315
     36 H8          1.4977   -4.6325    0.4647 H         1 <0>         0.1287
     37 H9          5.2273   -5.8206   -4.2250 H         1 <0>         0.1346
     38 H10         4.5573   -6.5590   -6.4340 H         1 <0>         0.1341
     39 H11         2.1856   -6.6993   -7.0676 H         1 <0>         0.1374
     40 H12         0.4409   -6.0804   -5.4300 H         1 <0>         0.1334
@<TRIPOS>BOND
     1    1    6 ar
     2    1    2 ar
     3    1   29 1
     4    2    3 ar
     5    2   30 1
     6    3    4 ar
     7    3   31 1
     8    4   12 1
     9    4    5 ar
    10    5    6 ar
    11    5    7 1
    12    6   32 1
    13    7    8 2
    14    7    9 am
    15    9   10 am
    16    9   19 1
    17   10   11 2
    18   10   12 1
    19   12   17 1
    20   12   13 1
    21   13   14 1
    22   13   33 1
    23   13   34 1
    24   14   15 1
    25   14   16 2
    26   16   17 1
    27   17   18 2
    28   19   20 1
    29   19   35 1
    30   19   36 1
    31   20   28 1
    32   20   21 2
    33   21   22 1
    34   22   27 ar
    35   22   23 ar
    36   23   24 ar
    37   23   37 1
    38   24   25 ar
    39   24   38 1
    40   25   26 ar
    41   25   39 1
    42   26   27 ar
    43   26   40 1
    44   27   28 1
@<TRIPOS>MOLECULE
CHEMBL44717
   32    34     0     0     0
SMALL
USER_CHARGES

@<TRIPOS>ATOM
      1 C1         -0.0167    1.3779    0.0096 C.ar      1 <0>        -0.1188
      2 C2          1.1711    2.0854    0.0021 C.ar      1 <0>        -0.1315
      3 C3          2.3773    1.4107   -0.0130 C.ar      1 <0>        -0.1009
      4 C4          2.3960    0.0283   -0.0201 C.ar      1 <0>        -0.0929
      5 C5          1.2086   -0.6790   -0.0117 C.ar      1 <0>        -0.0168
      6 C6          0.0021   -0.0041    0.0020 C.ar      1 <0>        -0.1081
      7 C7          1.2291   -2.1858   -0.0204 C.3       1 <0>        -0.1609
      8 C8          1.2508   -2.6961    1.3974 C.2       1 <0>         0.4968
      9 O1          1.2498   -1.9092    2.3286 O.co2     1 <0>        -0.6861
     10 O2          1.2694   -3.8960    1.6132 O.co2     1 <0>        -0.7018
     11 C9          3.6720    2.1819   -0.0222 C.3       1 <0>         0.0067
     12 C10         4.1176    2.4324    1.3954 C.2       1 <0>         0.1396
     13 N1          4.8840    1.6847    2.1345 N.2       1 <0>        -0.5007
     14 C11         5.2131    2.0214    3.3990 C.ar      1 <0>         0.1203
     15 C12         6.0221    1.3399    4.3355 C.ar      1 <0>         0.1154
     16 C13         6.2308    1.8657    5.5883 C.ar      1 <0>         0.1077
     17 C14         5.6585    3.0731    5.9711 C.ar      1 <0>        -0.1509
     18 C15         4.8613    3.7636    5.0754 C.ar      1 <0>         0.1857
     19 C16         4.6471    3.2447    3.8194 C.ar      1 <0>        -0.2180
     20 S1          3.7424    3.7462    2.3782 S.3       1 <0>         0.1519
     21 F1          4.2979    4.9388    5.4315 F         1 <0>        -0.1160
     22 F2          7.0082    1.1945    6.4661 F         1 <0>        -0.1132
     23 F3          6.5940    0.1635    3.9977 F         1 <0>        -0.1046
     24 H1         -0.9591    1.9051    0.0259 H         1 <0>         0.1173
     25 H2          1.1565    3.1653    0.0076 H         1 <0>         0.1149
     26 H3          3.3385   -0.4989   -0.0326 H         1 <0>         0.1178
     27 H4         -0.9258   -0.5567    0.0079 H         1 <0>         0.1161
     28 H5          0.3388   -2.5583   -0.5270 H         1 <0>         0.0700
     29 H6          2.1185   -2.5341   -0.5456 H         1 <0>         0.0699
     30 H7          4.4344    1.6057   -0.5463 H         1 <0>         0.1126
     31 H8          3.5236    3.1349   -0.5302 H         1 <0>         0.1059
     32 H9          5.8345    3.4692    6.9603 H         1 <0>         0.1725
@<TRIPOS>BOND
     1    1    6 ar
     2    1    2 ar
     3    1   24 1
     4    2    3 ar
     5    2   25 1
     6    3    4 ar
     7    3   11 1
     8    4    5 ar
     9    4   26 1
    10    5    6 ar
    11    5    7 1
    12    6   27 1
    13    7    8 1
    14    7   28 1
    15    7   29 1
    16    8    9 2
    17    8   10 1
    18   11   12 1
    19   11   30 1
    20   11   31 1
    21   12   20 1
    22   12   13 2
    23   13   14 1
    24   14   19 ar
    25   14   15 ar
    26   15   16 ar
    27   15   23 1
    28   16   17 ar
    29   16   22 1
    30   17   18 ar
    31   17   32 1
    32   18   19 ar
    33   18   21 1
    34   19   20 1
@<TRIPOS>MOLECULE
CHEMBL19316
   40    42     0     0     0
SMALL
USER_CHARGES

@<TRIPOS>ATOM
      1 C1          0.9422    1.4406   -1.2026 C.ar      1 <0>        -0.1027
      2 C2          2.0964    2.1354   -1.5115 C.ar      1 <0>        -0.1067
      3 C3          3.2625    1.4474   -1.7959 C.ar      1 <0>        -0.0344
      4 C4          3.2726    0.0641   -1.7708 C.ar      1 <0>        -0.1066
      5 C5          2.1178   -0.6296   -1.4616 C.ar      1 <0>        -0.1010
      6 C6          0.9529    0.0584   -1.1777 C.ar      1 <0>        -0.0768
      7 C7         -0.3058   -0.6985   -0.8402 C.3       1 <0>        -0.0739
      8 C8         -1.0895   -0.9826   -2.1232 C.3       1 <0>        -0.6148
      9 S1         -2.6046   -1.8938   -1.7171 S.o2      1 <0>         2.4789
     10 O1         -2.2901   -3.2339   -1.3643 O.2       1 <0>        -0.9223
     11 O2         -3.4429   -1.1035   -0.8853 O.2       1 <0>        -0.8989
     12 C9         -3.4776   -2.0233   -3.2421 C.ar      1 <0>        -0.6382
     13 C10        -3.6323   -3.2569   -3.8471 C.ar      1 <0>        -0.0022
     14 C11        -4.3166   -3.3590   -5.0434 C.ar      1 <0>        -0.1155
     15 C12        -4.8473   -2.2265   -5.6355 C.ar      1 <0>         0.0181
     16 C13        -4.6926   -0.9927   -5.0294 C.ar      1 <0>        -0.1095
     17 C14        -4.0124   -0.8925   -3.8301 C.ar      1 <0>        -0.0019
     18 C15        -3.8487    0.4507   -3.1668 C.3       1 <0>         0.1116
     19 C16        -5.0803    0.7980   -2.3544 C.2       1 <0>         0.5301
     20 O3         -5.5277    0.1893   -1.4061 O.2       1 <0>        -0.4034
     21 N1         -5.5742    1.9246   -2.9049 N.am      1 <0>        -0.6799
     22 C17        -4.8335    2.3331   -3.9414 C.2       1 <0>         0.7066
     23 O4         -5.0795    3.3258   -4.5980 O.2       1 <0>        -0.5293
     24 N2         -3.7857    1.5225   -4.1754 N.am      1 <0>        -0.7198
     25 Cl1        -5.7065   -2.3540   -7.1385 Cl        1 <0>        -0.0404
     26 Cl2         4.7124    2.3194   -2.1846 Cl        1 <0>        -0.0654
     27 H1          0.0330    1.9776   -0.9762 H         1 <0>         0.1346
     28 H2          2.0878    3.2152   -1.5314 H         1 <0>         0.1364
     29 H3          4.1825   -0.4735   -1.9930 H         1 <0>         0.1367
     30 H4          2.1254   -1.7094   -1.4423 H         1 <0>         0.1363
     31 H5         -0.0450   -1.6404   -0.3577 H         1 <0>         0.0969
     32 H6         -0.9187   -0.1017   -0.1647 H         1 <0>         0.0981
     33 H7         -1.3503   -0.0407   -2.6058 H         1 <0>         0.1346
     34 H8         -0.4766   -1.5794   -2.7987 H         1 <0>         0.1467
     35 H9         -3.2181   -4.1407   -3.3850 H         1 <0>         0.1639
     36 H10        -4.4368   -4.3225   -5.5163 H         1 <0>         0.1526
     37 H11        -5.1066   -0.1085   -5.4910 H         1 <0>         0.1463
     38 H12        -2.9572    0.4613   -2.5397 H         1 <0>         0.1298
     39 H13        -6.3689    2.3824   -2.5890 H         1 <0>         0.4393
     40 H14        -3.1185    1.6242   -4.8722 H         1 <0>         0.4460
@<TRIPOS>BOND
     1    1    6 ar
     2    1    2 ar
     3    1   27 1
     4    2    3 ar
     5    2   28 1
     6    3    4 ar
     7    3   26 1
     8    4    5 ar
     9    4   29 1
    10    5    6 ar
    11    5   30 1
    12    6    7 1
    13    7    8 1
    14    7   31 1
    15    7   32 1
    16    8    9 1
    17    8   33 1
    18    8   34 1
    19    9   10 2
    20    9   11 2
    21    9   12 1
    22   12   17 ar
    23   12   13 ar
    24   13   14 ar
    25   13   35 1
    26   14   15 ar
    27   14   36 1
    28   15   16 ar
    29   15   25 1
    30   16   17 ar
    31   16   37 1
    32   17   18 1
    33   18   24 1
    34   18   19 1
    35   18   38 1
    36   19   20 2
    37   19   21 am
    38   21   22 am
    39   21   39 1
    40   22   23 2
    41   22   24 am
    42   24   40 1
@<TRIPOS>MOLECULE
CHEMBL19316__1
   40    42     0     0     0
SMALL
USER_CHARGES

@<TRIPOS>ATOM
      1 C1         -6.9079   -1.2262    1.8946 C.ar      1 <0>        -0.1010
      2 C2         -8.0556   -0.6782    2.4356 C.ar      1 <0>        -0.1068
      3 C3         -8.2134    0.6958    2.4758 C.ar      1 <0>        -0.0344
      4 C4         -7.2220    1.5203    1.9745 C.ar      1 <0>        -0.1068
      5 C5         -6.0746    0.9711    1.4338 C.ar      1 <0>        -0.1027
      6 C6         -5.9176   -0.4018    1.3938 C.ar      1 <0>        -0.0769
      7 C7         -4.6662   -0.9999    0.8045 C.3       1 <0>        -0.0734
      8 C8         -4.8706   -1.2369   -0.6932 C.3       1 <0>        -0.6148
      9 S1         -3.3643   -1.9569   -1.4026 S.o2      1 <0>         2.4789
     10 O1         -2.3433   -0.9720   -1.4858 O.2       1 <0>        -0.8991
     11 O2         -3.1028   -3.2233   -0.8135 O.2       1 <0>        -0.9218
     12 C9         -3.7794   -2.3168   -3.0767 C.ar      1 <0>        -0.6381
     13 C10        -3.8772   -3.6302   -3.4974 C.ar      1 <0>        -0.0024
     14 C11        -4.2023   -3.9131   -4.8104 C.ar      1 <0>        -0.1155
     15 C12        -4.4304   -2.8816   -5.7041 C.ar      1 <0>         0.0180
     16 C13        -4.3328   -1.5677   -5.2825 C.ar      1 <0>        -0.1094
     17 C14        -4.0126   -1.2860   -3.9675 C.ar      1 <0>        -0.0016
     18 C15        -3.9118    0.1453   -3.5067 C.3       1 <0>         0.1116
     19 C16        -2.5492    0.7187   -3.8416 C.2       1 <0>         0.5298
     20 O3         -1.4728    0.3300   -3.4416 O.2       1 <0>        -0.4034
     21 N1         -2.7832    1.7499   -4.6771 N.am      1 <0>        -0.6799
     22 C17        -4.0906    1.9061   -4.9142 C.2       1 <0>         0.7065
     23 O4         -4.5478    2.7700   -5.6365 O.2       1 <0>        -0.5293
     24 N2         -4.8427    1.0002   -4.2634 N.am      1 <0>        -0.7196
     25 Cl1        -4.8383   -3.2361   -7.3538 Cl        1 <0>        -0.0404
     26 Cl2        -9.6549    1.3848    3.1546 Cl        1 <0>        -0.0655
     27 H1         -6.7827   -2.2985    1.8672 H         1 <0>         0.1362
     28 H2         -8.8294   -1.3223    2.8265 H         1 <0>         0.1366
     29 H3         -7.3447    2.5929    2.0053 H         1 <0>         0.1365
     30 H4         -5.3008    1.6147    1.0420 H         1 <0>         0.1350
     31 H5         -3.8313   -0.3152    0.9534 H         1 <0>         0.0957
     32 H6         -4.4505   -1.9484    1.2963 H         1 <0>         0.0992
     33 H7         -5.7055   -1.9216   -0.8421 H         1 <0>         0.1457
     34 H8         -5.0864   -0.2884   -1.1850 H         1 <0>         0.1355
     35 H9         -3.6992   -4.4352   -2.7998 H         1 <0>         0.1640
     36 H10        -4.2780   -4.9391   -5.1391 H         1 <0>         0.1526
     37 H11        -4.5107   -0.7622   -5.9795 H         1 <0>         0.1461
     38 H12        -4.1084    0.2173   -2.4370 H         1 <0>         0.1294
     39 H13        -2.0894    2.3100   -5.0590 H         1 <0>         0.4393
     40 H14        -5.8094    0.9245   -4.2879 H         1 <0>         0.4460
@<TRIPOS>BOND
     1    1    6 ar
     2    1    2 ar
     3    1   27 1
     4    2    3 ar
     5    2   28 1
     6    3    4 ar
     7    3   26 1
     8    4    5 ar
     9    4   29 1
    10    5    6 ar
    11    5   30 1
    12    6    7 1
    13    7    8 1
    14    7   31 1
    15    7   32 1
    16    8    9 1
    17    8   33 1
    18    8   34 1
    19    9   10 2
    20    9   11 2
    21    9   12 1
    22   12   17 ar
    23   12   13 ar
    24   13   14 ar
    25   13   35 1
    26   14   15 ar
    27   14   36 1
    28   15   16 ar
    29   15   25 1
    30   16   17 ar
    31   16   37 1
    32   17   18 1
    33   18   24 1
    34   18   19 1
    35   18   38 1
    36   19   20 2
    37   19   21 am
    38   21   22 am
    39   21   39 1
    40   22   23 2
    41   22   24 am
    42   24   40 1
@<TRIPOS>MOLECULE
CHEMBL10350
   37    39     0     0     0
SMALL
USER_CHARGES

@<TRIPOS>ATOM
      1 C1         -0.2192    0.9639    0.2660 C.ar      1 <0>        -0.1735
      2 C2          0.8737    1.8007    0.1797 C.ar      1 <0>        -0.0230
      3 C3          2.1549    1.2565    0.0814 C.ar      1 <0>        -0.1219
      4 C4          2.3135   -0.1340    0.0718 C.ar      1 <0>         0.0272
      5 C5          1.2214   -0.9604    0.1577 C.ar      1 <0>        -0.1580
      6 C6         -0.0513   -0.4123    0.2557 C.ar      1 <0>         0.1295
      7 F1         -1.1287   -1.2229    0.3412 F         1 <0>        -0.1371
      8 C7          3.7155   -0.6864   -0.0358 C.3       1 <0>        -0.0609
      9 C8          4.8500    0.3111   -0.1258 C.2       1 <0>         0.5707
     10 O1          5.9953   -0.0765   -0.2142 O.2       1 <0>        -0.5078
     11 N1          4.5831    1.6284   -0.1077 N.am      1 <0>        -0.5429
     12 C9          3.3415    2.1238   -0.0128 C.2       1 <0>         0.5902
     13 O2          3.1897    3.3295   -0.0034 O.2       1 <0>        -0.4977
     14 C10         5.7037    2.5679   -0.1959 C.3       1 <0>         0.1381
     15 C11         5.9786    2.8874   -1.6428 C.ar      1 <0>        -0.1225
     16 C12         7.0103    2.2510   -2.3072 C.ar      1 <0>        -0.0556
     17 C13         7.2627    2.5431   -3.6342 C.ar      1 <0>        -0.1081
     18 C14         6.4834    3.4732   -4.2991 C.ar      1 <0>        -0.0529
     19 C15         5.4514    4.1111   -3.6360 C.ar      1 <0>        -0.1347
     20 C16         5.1944    3.8141   -2.3082 C.ar      1 <0>         0.1398
     21 F2          4.1827    4.4326   -1.6608 F         1 <0>        -0.1085
     22 Br1         6.8303    3.8724   -6.1146 Br        1 <0>        -0.0485
     23 C17         3.7748   -1.5784   -1.2775 C.3       1 <0>        -0.1813
     24 C18         3.4916   -0.7507   -2.5046 C.2       1 <0>         0.4900
     25 O3          3.3632    0.4579   -2.4084 O.co2     1 <0>        -0.6809
     26 O4          3.3909   -1.2897   -3.5936 O.co2     1 <0>        -0.6952
     27 H1         -1.2113    1.3831    0.3467 H         1 <0>         0.1398
     28 H2          0.7386    2.8722    0.1877 H         1 <0>         0.1455
     29 H3          1.3509   -2.0326    0.1498 H         1 <0>         0.1420
     30 H4          3.8938   -1.3184    0.8342 H         1 <0>         0.1104
     31 H5          5.4520    3.4847    0.3372 H         1 <0>         0.1063
     32 H6          6.5903    2.1190    0.2519 H         1 <0>         0.1065
     33 H7          7.6196    1.5254   -1.7889 H         1 <0>         0.1425
     34 H8          8.0690    2.0454   -4.1524 H         1 <0>         0.1366
     35 H9          4.8434    4.8376   -4.1546 H         1 <0>         0.1412
     36 H10         4.7672   -2.0217   -1.3593 H         1 <0>         0.0787
     37 H11         3.0294   -2.3692   -1.1927 H         1 <0>         0.0759
@<TRIPOS>BOND
     1    1    6 ar
     2    1    2 ar
     3    1   27 1
     4    2    3 ar
     5    2   28 1
     6    3   12 1
     7    3    4 ar
     8    4    5 ar
     9    4    8 1
    10    5    6 ar
    11    5   29 1
    12    6    7 1
    13    8    9 1
    14    8   23 1
    15    8   30 1
    16    9   10 2
    17    9   11 am
    18   11   12 am
    19   11   14 1
    20   12   13 2
    21   14   15 1
    22   14   31 1
    23   14   32 1
    24   15   20 ar
    25   15   16 ar
    26   16   17 ar
    27   16   33 1
    28   17   18 ar
    29   17   34 1
    30   18   19 ar
    31   18   22 1
    32   19   20 ar
    33   19   35 1
    34   20   21 1
    35   23   24 1
    36   23   36 1
    37   23   37 1
    38   24   25 2
    39   24   26 1
@<TRIPOS>MOLECULE
CHEMBL10350__1
   37    39     0     0     0
SMALL
USER_CHARGES

@<TRIPOS>ATOM
      1 C1         -0.0181    1.3793    0.0069 C.ar      1 <0>        -0.1740
      2 C2          1.1615    2.0940    0.0004 C.ar      1 <0>        -0.0225
      3 C3          2.3807    1.4154   -0.0139 C.ar      1 <0>        -0.1203
      4 C4          2.3898    0.0158   -0.0216 C.ar      1 <0>         0.0304
      5 C5          1.2121   -0.6885   -0.0155 C.ar      1 <0>        -0.1598
      6 C6          0.0017   -0.0070   -0.0008 C.ar      1 <0>         0.1297
      7 F1         -1.1596   -0.6971    0.0061 F         1 <0>        -0.1373
      8 C7          3.7285   -0.6839   -0.0371 C.3       1 <0>        -0.0613
      9 C8          4.9668    0.1861   -0.0433 C.2       1 <0>         0.5682
     10 O1          6.0674   -0.3222   -0.0561 O.2       1 <0>        -0.5054
     11 N1          4.8420    1.5244   -0.0350 N.am      1 <0>        -0.5426
     12 C9          3.6570    2.1503   -0.0217 C.2       1 <0>         0.5902
     13 O2          3.6349    3.3653   -0.0149 O.2       1 <0>        -0.4972
     14 C10         6.0601    2.3382   -0.0408 C.3       1 <0>         0.1353
     15 C11         6.4659    2.6249   -1.4635 C.ar      1 <0>        -0.1276
     16 C12         7.4664    1.8809   -2.0602 C.ar      1 <0>        -0.0590
     17 C13         7.8388    2.1430   -3.3651 C.ar      1 <0>        -0.1091
     18 C14         7.2108    3.1506   -4.0755 C.ar      1 <0>        -0.0600
     19 C15         6.2102    3.8962   -3.4802 C.ar      1 <0>        -0.1379
     20 C16         5.8327    3.6298   -2.1749 C.ar      1 <0>         0.1279
     21 F2          4.8513    4.3539   -1.5938 F         1 <0>        -0.1033
     22 Br1         7.7217    3.5086   -5.8607 Br        1 <0>        -0.0434
     23 C17         3.7983   -1.5916    1.1926 C.3       1 <0>        -0.1807
     24 C18         3.7845   -0.7478    2.4412 C.2       1 <0>         0.4893
     25 O3          3.6325    0.4591    2.3597 O.co2     1 <0>        -0.6851
     26 O4          3.9253   -1.2722    3.5329 O.co2     1 <0>        -0.6942
     27 H1         -0.9628    1.9026    0.0226 H         1 <0>         0.1399
     28 H2          1.1416    3.1738    0.0060 H         1 <0>         0.1455
     29 H3          1.2262   -1.7684   -0.0214 H         1 <0>         0.1420
     30 H4          3.7628   -1.3211   -0.9208 H         1 <0>         0.1107
     31 H5          5.8722    3.2772    0.4798 H         1 <0>         0.1100
     32 H6          6.8609    1.7972    0.4634 H         1 <0>         0.1101
     33 H7          7.9577    1.0946   -1.5064 H         1 <0>         0.1490
     34 H8          8.6206    1.5611   -3.8305 H         1 <0>         0.1401
     35 H9          5.7204    4.6833   -4.0343 H         1 <0>         0.1446
     36 H10         2.9394   -2.2627    1.1981 H         1 <0>         0.0779
     37 H11         4.7169   -2.1774    1.1601 H         1 <0>         0.0798
@<TRIPOS>BOND
     1    1    6 ar
     2    1    2 ar
     3    1   27 1
     4    2    3 ar
     5    2   28 1
     6    3   12 1
     7    3    4 ar
     8    4    5 ar
     9    4    8 1
    10    5    6 ar
    11    5   29 1
    12    6    7 1
    13    8    9 1
    14    8   23 1
    15    8   30 1
    16    9   10 2
    17    9   11 am
    18   11   12 am
    19   11   14 1
    20   12   13 2
    21   14   15 1
    22   14   31 1
    23   14   32 1
    24   15   20 ar
    25   15   16 ar
    26   16   17 ar
    27   16   33 1
    28   17   18 ar
    29   17   34 1
    30   18   19 ar
    31   18   22 1
    32   19   20 ar
    33   19   35 1
    34   20   21 1
    35   23   24 1
    36   23   36 1
    37   23   37 1
    38   24   25 2
    39   24   26 1
@<TRIPOS>MOLECULE
CHEMBL163888
   28    30     0     0     0
SMALL
USER_CHARGES

@<TRIPOS>ATOM
      1 C1         -0.1606    1.0152    0.2123 C.ar      1 <0>        -0.1600
      2 C2          0.9296    1.8448    0.0523 C.ar      1 <0>        -0.0716
      3 C3          2.2132    1.3022   -0.0311 C.ar      1 <0>        -0.0607
      4 C4          2.3783   -0.0783    0.0488 C.ar      1 <0>        -0.0460
      5 C5          1.2847   -0.9015    0.2087 C.ar      1 <0>        -0.1335
      6 C6          0.0127   -0.3569    0.2908 C.ar      1 <0>         0.0985
      7 F1         -1.0588   -1.1647    0.4474 F         1 <0>        -0.1408
      8 C7          3.8547   -0.3672   -0.0703 C.3       1 <0>         0.0008
      9 C8          4.5307    0.9730   -0.2266 C.ar      1 <0>        -0.0220
     10 C9          3.5378    1.9492   -0.2006 C.ar      1 <0>        -0.0839
     11 C10         3.8945    3.2929   -0.3275 C.ar      1 <0>        -0.0768
     12 C11         5.2201    3.6432   -0.4769 C.ar      1 <0>        -0.1632
     13 C12         6.2013    2.6658   -0.5018 C.ar      1 <0>         0.0970
     14 C13         5.8534    1.3299   -0.3758 C.ar      1 <0>        -0.1186
     15 F2          7.4982    3.0147   -0.6484 F         1 <0>        -0.1401
     16 C14         4.1234   -1.2391   -1.2985 C.3       1 <0>        -0.1678
     17 C15         5.5661   -1.6749   -1.2992 C.2       1 <0>         0.4943
     18 O1          6.2743   -1.4400   -0.3350 O.co2     1 <0>        -0.6899
     19 O2          6.0249   -2.2623   -2.2640 O.co2     1 <0>        -0.6970
     20 H1         -1.1523    1.4372    0.2811 H         1 <0>         0.1351
     21 H2          0.7902    2.9140   -0.0089 H         1 <0>         0.1308
     22 H3          1.4188   -1.9714    0.2700 H         1 <0>         0.1379
     23 H4          4.2134   -0.8656    0.8303 H         1 <0>         0.1165
     24 H5          3.1325    4.0580   -0.3089 H         1 <0>         0.1273
     25 H6          5.4940    4.6833   -0.5753 H         1 <0>         0.1328
     26 H7          6.6191    0.5685   -0.3953 H         1 <0>         0.1707
     27 H8          3.4786   -2.1174   -1.2687 H         1 <0>         0.0678
     28 H9          3.9163   -0.6668   -2.2027 H         1 <0>         0.0624
@<TRIPOS>BOND
     1    1    6 ar
     2    1    2 ar
     3    1   20 1
     4    2    3 ar
     5    2   21 1
     6    3   10 1
     7    3    4 ar
     8    4    5 ar
     9    4    8 1
    10    5    6 ar
    11    5   22 1
    12    6    7 1
    13    8    9 1
    14    8   16 1
    15    8   23 1
    16    9   14 ar
    17    9   10 ar
    18   10   11 ar
    19   11   12 ar
    20   11   24 1
    21   12   13 ar
    22   12   25 1
    23   13   14 ar
    24   13   15 1
    25   14   26 1
    26   16   17 1
    27   16   27 1
    28   16   28 1
    29   17   18 2
    30   17   19 1
@<TRIPOS>MOLECULE
CHEMBL327139
   30    33     0     0     0
SMALL
USER_CHARGES

@<TRIPOS>ATOM
      1 C1         -0.0167    1.3810    0.0096 C.ar      1 <0>        -0.1502
      2 C2          1.1661    2.0899    0.0021 C.ar      1 <0>        -0.0695
      3 C3          2.3867    1.4152   -0.0136 C.ar      1 <0>        -0.0567
      4 C4          2.3981    0.0175   -0.0191 C.ar      1 <0>        -0.0293
      5 C5          1.2105   -0.6819   -0.0118 C.ar      1 <0>        -0.1186
      6 C6          0.0021   -0.0041    0.0020 C.ar      1 <0>         0.1078
      7 F1         -1.1590   -0.6947    0.0085 F         1 <0>        -0.1344
      8 C7          3.8326   -0.3961   -0.0334 C.3       1 <0>        -0.4840
      9 C8          4.1683   -1.3553   -1.1870 C.3       1 <0>        -0.1249
     10 C9          5.1087   -2.4041   -0.6622 C.2       1 <0>         0.4340
     11 O1          5.8185   -3.1655   -1.5206 O.3       1 <0>        -0.6481
     12 N1          5.2358   -2.5739    0.6044 N.2       1 <0>        -0.8947
     13 S1          4.2376   -1.4762    1.3872 S.o2      1 <0>         2.4641
     14 O2          5.0655   -0.7988    2.3226 O.2       1 <0>        -0.9624
     15 O3          3.0993   -2.2173    1.8047 O.2       1 <0>        -0.9726
     16 C10         4.6696    0.8401   -0.0411 C.ar      1 <0>        -0.0151
     17 C11         3.7835    1.9211   -0.0278 C.ar      1 <0>        -0.0624
     18 C12         4.2891    3.2210   -0.0303 C.ar      1 <0>        -0.0674
     19 C13         5.6514    3.4339   -0.0479 C.ar      1 <0>        -0.1515
     20 C14         6.5238    2.3579   -0.0626 C.ar      1 <0>         0.1132
     21 C15         6.0296    1.0635   -0.0587 C.ar      1 <0>        -0.1166
     22 F2          7.8578    2.5709   -0.0805 F         1 <0>        -0.1339
     23 H1         -0.9599    1.9069    0.0260 H         1 <0>         0.1411
     24 H2          1.1473    3.1698    0.0081 H         1 <0>         0.1360
     25 H3          1.2218   -1.7619   -0.0172 H         1 <0>         0.1498
     26 H4          3.2558   -1.8276   -1.5508 H         1 <0>         0.1119
     27 H5          4.6460   -0.8043   -1.9971 H         1 <0>         0.1134
     28 H6          3.6122    4.0625   -0.0188 H         1 <0>         0.1352
     29 H7          6.0392    4.4419   -0.0504 H         1 <0>         0.1409
     30 H8          6.7123    0.2267   -0.0697 H         1 <0>         0.1449
@<TRIPOS>BOND
     1    1    6 ar
     2    1    2 ar
     3    1   23 1
     4    2    3 ar
     5    2   24 1
     6    3   17 1
     7    3    4 ar
     8    4    5 ar
     9    4    8 1
    10    5    6 ar
    11    5   25 1
    12    6    7 1
    13    8   13 1
    14    8    9 1
    15    8   16 1
    16    9   10 1
    17    9   26 1
    18    9   27 1
    19   10   11 1
    20   10   12 2
    21   12   13 1
    22   13   14 2
    23   13   15 2
    24   16   21 ar
    25   16   17 ar
    26   17   18 ar
    27   18   19 ar
    28   18   28 1
    29   19   20 ar
    30   19   29 1
    31   20   21 ar
    32   20   22 1
    33   21   30 1
@<TRIPOS>MOLECULE
CHEMBL142239
   36    38     0     0     0
SMALL
USER_CHARGES

@<TRIPOS>ATOM
      1 C1          0.1928    0.6718   -0.3656 C.3       1 <0>         0.0303
      2 O1          0.1076   -0.7130   -0.0234 O.3       1 <0>        -0.3301
      3 C2         -1.1345   -1.2441    0.0876 C.ar      1 <0>         0.1504
      4 C3         -1.8035   -1.2254    1.3134 C.ar      1 <0>        -0.0996
      5 C4         -3.0950   -1.7781    1.4274 C.ar      1 <0>        -0.0876
      6 C5         -3.7102   -2.3361    0.3560 C.ar      1 <0>        -0.1025
      7 C6         -3.0634   -2.3719   -0.8948 C.ar      1 <0>        -0.0268
      8 C7         -1.7670   -1.8157   -1.0332 C.ar      1 <0>        -0.0733
      9 C8         -1.1314   -1.8497   -2.2857 C.ar      1 <0>        -0.0910
     10 C9         -1.7695   -2.4095   -3.3506 C.ar      1 <0>        -0.1201
     11 C10        -3.0462   -2.9503   -3.2164 C.ar      1 <0>        -0.1056
     12 C11        -3.6865   -2.9470   -2.0141 C.ar      1 <0>        -0.1091
     13 C12        -1.1591   -0.6286    2.4870 C.2       1 <0>         0.0609
     14 C13        -1.9075   -0.2655    3.5620 C.2       1 <0>        -0.2112
     15 C14        -1.4767    0.2126    4.8891 C.2       1 <0>         0.5465
     16 O2         -0.2992    0.3384    5.1718 O.2       1 <0>        -0.4543
     17 N1         -2.4332    0.4982    5.7563 N.am      1 <0>        -0.4823
     18 C15        -3.7364    0.3575    5.4391 C.2       1 <0>         0.2953
     19 S1         -5.1082    0.6716    6.4141 S.2       1 <0>        -0.3618
     20 S2         -3.6844   -0.2287    3.7533 S.3       1 <0>         0.0412
     21 C16        -2.0690    0.9779    7.0918 C.3       1 <0>         0.0078
     22 C17        -1.9731    2.4818    7.0766 C.2       1 <0>         0.4996
     23 O3         -2.1890    3.0960    6.0458 O.co2     1 <0>        -0.6803
     24 O4         -1.6797    3.0842    8.0951 O.co2     1 <0>        -0.6781
     25 H1          1.2401    0.9685   -0.4216 H         1 <0>         0.1023
     26 H2         -0.2839    0.8373   -1.3318 H         1 <0>         0.0513
     27 H3         -0.3129    1.2660    0.3955 H         1 <0>         0.0554
     28 H4         -3.6011   -1.7571    2.3812 H         1 <0>         0.1415
     29 H5         -4.6999   -2.7552    0.4620 H         1 <0>         0.1388
     30 H6         -0.1418   -1.4336   -2.4035 H         1 <0>         0.1318
     31 H7         -1.2791   -2.4342   -4.3125 H         1 <0>         0.1257
     32 H8         -3.5312   -3.3886   -4.0761 H         1 <0>         0.1257
     33 H9         -4.6761   -3.3705   -1.9257 H         1 <0>         0.1325
     34 H10        -0.0898   -0.4775    2.4976 H         1 <0>         0.1638
     35 H11        -2.8300    0.6696    7.8087 H         1 <0>         0.1117
     36 H12        -1.1063    0.5553    7.3796 H         1 <0>         0.1012
@<TRIPOS>BOND
     1    1    2 1
     2    1   25 1
     3    1   26 1
     4    1   27 1
     5    2    3 1
     6    3    8 ar
     7    3    4 ar
     8    4    5 ar
     9    4   13 1
    10    5    6 ar
    11    5   28 1
    12    6    7 ar
    13    6   29 1
    14    7   12 ar
    15    7    8 ar
    16    8    9 ar
    17    9   10 ar
    18    9   30 1
    19   10   11 ar
    20   10   31 1
    21   11   12 ar
    22   11   32 1
    23   12   33 1
    24   13   14 2
    25   13   34 1
    26   14   20 1
    27   14   15 1
    28   15   16 2
    29   15   17 am
    30   17   18 1
    31   17   21 1
    32   18   19 2
    33   18   20 1
    34   21   22 1
    35   21   35 1
    36   21   36 1
    37   22   23 2
    38   22   24 1
@<TRIPOS>MOLECULE
CHEMBL56424
   29    31     0     0     0
SMALL
USER_CHARGES

@<TRIPOS>ATOM
      1 C1         -0.0187    1.5258    0.0104 C.3       1 <0>        -0.1462
      2 C2          0.0021   -0.0041    0.0020 C.3       1 <0>         0.0849
      3 H1          0.5118   -0.3584   -0.8939 H         1 <0>         0.1031
      4 C3         -1.4364   -0.5393    0.0225 C.3       1 <0>        -0.1553
      5 C4         -1.3816   -2.0617   -0.0699 C.3       1 <0>         0.1777
      6 C5         -0.3653   -2.6147    0.8872 C.ar      1 <0>        -0.1708
      7 C6         -0.4053   -3.9606    1.2185 C.ar      1 <0>        -0.0161
      8 C7          0.5432   -4.4579    2.1006 C.ar      1 <0>        -0.0845
      9 C8          1.4944   -3.5985    2.6183 C.ar      1 <0>         0.1422
     10 N1          1.5041   -2.3234    2.2852 N.ar      1 <0>        -0.1319
     11 O1          2.4959   -1.4772    2.8379 O.3       1 <0>        -0.5192
     12 C9          0.6121   -1.8076    1.4469 C.ar      1 <0>         0.3514
     13 O2          0.6843   -0.4808    1.1622 O.3       1 <0>        -0.2670
     14 Cl1         0.5353   -6.1351    2.5483 Cl        1 <0>        -0.0010
     15 C10        -1.0638   -2.4911   -1.4837 C.2       1 <0>         0.5368
     16 O3         -0.0633   -2.2386   -2.1202 O.2       1 <0>        -0.4395
     17 N2         -2.1283   -3.2147   -1.8881 N.am      1 <0>        -0.6745
     18 C11        -3.0607   -3.2970   -0.9310 C.2       1 <0>         0.7056
     19 O4         -4.1102   -3.8964   -1.0596 O.2       1 <0>        -0.5196
     20 N3         -2.7053   -2.6407    0.1902 N.am      1 <0>        -0.7108
     21 H2          1.0039    1.9031    0.0027 H         1 <0>         0.0818
     22 H3         -0.5459    1.8868   -0.8726 H         1 <0>         0.0914
     23 H4         -0.5289    1.8773    0.9072 H         1 <0>         0.0754
     24 H5         -1.9249   -0.2448    0.9513 H         1 <0>         0.1131
     25 H6         -1.9895   -0.1392   -0.8272 H         1 <0>         0.1144
     26 H7         -1.1600   -4.6089    0.7984 H         1 <0>         0.1642
     27 H8          2.2381   -3.9765    3.3042 H         1 <0>         0.2044
     28 H9         -2.2082   -3.6242   -2.7638 H         1 <0>         0.4412
     29 H10        -3.2218   -2.5657    1.0078 H         1 <0>         0.4486
@<TRIPOS>BOND
     1    1    2 1
     2    1   21 1
     3    1   22 1
     4    1   23 1
     5    2    3 1
     6    2   13 1
     7    2    4 1
     8    4    5 1
     9    4   24 1
    10    4   25 1
    11    5   20 1
    12    5    6 1
    13    5   15 1
    14    6   12 ar
    15    6    7 ar
    16    7    8 ar
    17    7   26 1
    18    8    9 ar
    19    8   14 1
    20    9   10 ar
    21    9   27 1
    22   10   11 1
    23   10   12 ar
    24   12   13 1
    25   15   16 2
    26   15   17 am
    27   17   18 am
    28   17   28 1
    29   18   19 2
    30   18   20 am
    31   20   29 1
@<TRIPOS>MOLECULE
CHEMBL56424__1
   28    30     0     0     0
SMALL
USER_CHARGES

@<TRIPOS>ATOM
      1 C1         -0.0187    1.5258    0.0104 C.3       1 <0>        -0.1394
      2 C2          0.0021   -0.0041    0.0020 C.3       1 <0>         0.0816
      3 H1          0.5118   -0.3583   -0.8939 H         1 <0>         0.1128
      4 C3         -1.4364   -0.5393    0.0224 C.3       1 <0>        -0.1372
      5 C4         -1.3817   -2.0615   -0.0687 C.3       1 <0>         0.1408
      6 C5         -0.3654   -2.6146    0.8880 C.ar      1 <0>        -0.1193
      7 C6         -0.4056   -3.9604    1.2198 C.ar      1 <0>        -0.0195
      8 C7          0.5438   -4.4578    2.1008 C.ar      1 <0>        -0.0837
      9 C8          1.4962   -3.5987    2.6169 C.ar      1 <0>         0.1167
     10 N1          1.5061   -2.3237    2.2834 N.ar      1 <0>        -0.1301
     11 O1          2.4991   -1.4779    2.8343 O.3       1 <0>        -0.5437
     12 C9          0.6131   -1.8077    1.4463 C.ar      1 <0>         0.3371
     13 O2          0.6844   -0.4808    1.1621 O.3       1 <0>        -0.2772
     14 Cl1         0.5357   -6.1348    2.5492 Cl        1 <0>        -0.0209
     15 C10        -1.0690   -2.4939   -1.4822 C.2       1 <0>         0.4685
     16 O3          0.0396   -2.2144   -2.1865 O.3       1 <0>        -0.6240
     17 N2         -2.0972   -3.1959   -1.8793 N.2       1 <0>        -0.6603
     18 C11        -3.0459   -3.2931   -0.9383 C.2       1 <0>         0.6604
     19 O4         -4.0909   -3.8988   -1.0861 O.2       1 <0>        -0.5786
     20 N3         -2.7063   -2.6405    0.1922 N.am      1 <0>        -0.7605
     21 H2          1.0039    1.9031    0.0027 H         1 <0>         0.0730
     22 H3         -0.5459    1.8868   -0.8726 H         1 <0>         0.0864
     23 H4         -0.5289    1.8773    0.9072 H         1 <0>         0.0663
     24 H5         -1.9253   -0.2440    0.9508 H         1 <0>         0.0836
     25 H6         -1.9892   -0.1399   -0.8278 H         1 <0>         0.1007
     26 H7         -1.1612   -4.6085    0.8010 H         1 <0>         0.1624
     27 H8          2.2408   -3.9768    3.3018 H         1 <0>         0.1948
     28 H9         -3.2275   -2.5687    1.0071 H         1 <0>         0.4095
@<TRIPOS>BOND
     1    1    2 1
     2    1   21 1
     3    1   22 1
     4    1   23 1
     5    2    3 1
     6    2   13 1
     7    2    4 1
     8    4    5 1
     9    4   24 1
    10    4   25 1
    11    5   20 1
    12    5    6 1
    13    5   15 1
    14    6   12 ar
    15    6    7 ar
    16    7    8 ar
    17    7   26 1
    18    8    9 ar
    19    8   14 1
    20    9   10 ar
    21    9   27 1
    22   10   11 1
    23   10   12 ar
    24   12   13 1
    25   15   16 1
    26   15   17 2
    27   17   18 1
    28   18   19 2
    29   18   20 am
    30   20   28 1
@<TRIPOS>MOLECULE
CHEMBL193155
   39    42     0     0     0
SMALL
USER_CHARGES

@<TRIPOS>ATOM
      1 C1         -0.0165    1.3620    0.0095 C.ar      1 <0>        -0.1551
      2 C2          1.1697    2.0834    0.0021 C.ar      1 <0>        -0.1128
      3 C3          2.3856    1.4362   -0.0134 C.ar      1 <0>        -0.1145
      4 C4          2.4281    0.0456   -0.0212 C.ar      1 <0>         0.1154
      5 C5          1.2234   -0.6807   -0.0132 C.ar      1 <0>        -0.1001
      6 C6          0.0021   -0.0041    0.0020 C.ar      1 <0>        -0.0782
      7 C7          1.6036   -2.0953   -0.0245 C.2       1 <0>        -0.2054
      8 C8          2.9451   -2.1410   -0.0380 C.2       1 <0>         0.0842
      9 N1          3.4551   -0.8713   -0.0363 N.pl3     1 <0>        -0.4386
     10 C9          4.8815   -0.5372   -0.0482 C.3       1 <0>         0.0314
     11 C10         5.3560   -0.3100    1.3640 C.2       1 <0>         0.4803
     12 O1          4.5751   -0.4172    2.2942 O.co2     1 <0>        -0.6709
     13 O2          6.5208   -0.0190    1.5763 O.co2     1 <0>        -0.6920
     14 C11         0.6664   -3.2754   -0.0210 C.3       1 <0>        -0.0235
     15 C12         0.2361   -3.5891   -1.4554 C.3       1 <0>        -0.0387
     16 C13        -0.7011   -4.7693   -1.4519 C.2       1 <0>         0.1386
     17 N2         -1.9984   -4.7573   -1.3547 N.2       1 <0>        -0.5110
     18 C14        -2.7303   -5.8908   -1.3644 C.ar      1 <0>         0.1186
     19 C15        -4.1290   -6.0657   -1.2697 C.ar      1 <0>         0.1083
     20 C16        -4.6769   -7.3260   -1.2998 C.ar      1 <0>         0.1103
     21 C17        -3.8807   -8.4586   -1.4232 C.ar      1 <0>        -0.1537
     22 C18        -2.5073   -8.3191   -1.5179 C.ar      1 <0>         0.1899
     23 C19        -1.9505   -7.0613   -1.4886 C.ar      1 <0>        -0.2231
     24 S1         -0.3068   -6.4004   -1.5804 S.3       1 <0>         0.1568
     25 F1         -1.7191   -9.4097   -1.6388 F         1 <0>        -0.1141
     26 F2         -6.0174   -7.4668   -1.2072 F         1 <0>        -0.1132
     27 F3         -4.9334   -4.9871   -1.1484 F         1 <0>        -0.1074
     28 H1         -0.9613    1.8849    0.0259 H         1 <0>         0.1135
     29 H2          1.1388    3.1630    0.0081 H         1 <0>         0.1170
     30 H3          3.3028    2.0064   -0.0198 H         1 <0>         0.1136
     31 H4         -0.9246   -0.5587    0.0082 H         1 <0>         0.1140
     32 H5          3.5346   -3.0459   -0.0490 H         1 <0>         0.1594
     33 H6          5.4433   -1.3588   -0.4925 H         1 <0>         0.0877
     34 H7          5.0376    0.3686   -0.6341 H         1 <0>         0.0835
     35 H8          1.1742   -4.1414    0.4036 H         1 <0>         0.0713
     36 H9         -0.2127   -3.0396    0.5787 H         1 <0>         0.0756
     37 H10        -0.2717   -2.7231   -1.8800 H         1 <0>         0.1092
     38 H11         1.1152   -3.8250   -2.0551 H         1 <0>         0.1011
     39 H12        -4.3305   -9.4402   -1.4446 H         1 <0>         0.1727
@<TRIPOS>BOND
     1    1    6 ar
     2    1    2 ar
     3    1   28 1
     4    2    3 ar
     5    2   29 1
     6    3    4 ar
     7    3   30 1
     8    4    9 1
     9    4    5 ar
    10    5    6 ar
    11    5    7 1
    12    6   31 1
    13    7    8 2
    14    7   14 1
    15    8    9 1
    16    8   32 1
    17    9   10 1
    18   10   11 1
    19   10   33 1
    20   10   34 1
    21   11   12 2
    22   11   13 1
    23   14   15 1
    24   14   35 1
    25   14   36 1
    26   15   16 1
    27   15   37 1
    28   15   38 1
    29   16   24 1
    30   16   17 2
    31   17   18 1
    32   18   23 ar
    33   18   19 ar
    34   19   20 ar
    35   19   27 1
    36   20   21 ar
    37   20   26 1
    38   21   22 ar
    39   21   39 1
    40   22   23 ar
    41   22   25 1
    42   23   24 1
@<TRIPOS>MOLECULE
CHEMBL192399
   50    54     0     0     0
SMALL
USER_CHARGES

@<TRIPOS>ATOM
      1 C1         -0.0167    1.3781    0.0096 C.ar      1 <0>        -0.1145
      2 C2          1.1709    2.0855    0.0021 C.ar      1 <0>        -0.1243
      3 C3          2.3773    1.4107   -0.0130 C.ar      1 <0>        -0.0955
      4 C4          2.3960    0.0285   -0.0201 C.ar      1 <0>        -0.0894
      5 C5          1.2084   -0.6789   -0.0117 C.ar      1 <0>        -0.0962
      6 C6          0.0021   -0.0041    0.0020 C.ar      1 <0>        -0.1250
      7 C7          3.7112   -0.7071   -0.0376 C.3       1 <0>         0.1017
      8 O1          4.1410   -0.9464    1.3041 O.3       1 <0>        -0.3118
      9 C8          5.3194   -1.6054    1.4666 C.ar      1 <0>         0.0957
     10 C9          6.0487   -2.0076    0.3505 C.ar      1 <0>        -0.1890
     11 C10         7.2438   -2.6754    0.4970 C.ar      1 <0>        -0.0705
     12 C11         7.7332   -2.9541    1.7689 C.ar      1 <0>         0.0882
     13 C12         6.9992   -2.5493    2.8979 C.ar      1 <0>        -0.0580
     14 C13         5.7906   -1.8678    2.7373 C.ar      1 <0>        -0.1175
     15 C14         7.7729   -2.9862    4.0626 C.2       1 <0>        -0.2230
     16 C15         8.8730   -3.5983    3.5965 C.2       1 <0>         0.1180
     17 N1          8.8676   -3.5893    2.2286 N.pl3     1 <0>        -0.4346
     18 C16         9.9109   -4.1688    1.3788 C.3       1 <0>         0.0301
     19 C17        10.8961   -3.0964    0.9911 C.2       1 <0>         0.4816
     20 O2         10.7413   -1.9540    1.3878 O.co2     1 <0>        -0.6702
     21 O3         11.8481   -3.3713    0.2807 O.co2     1 <0>        -0.6904
     22 C18         7.4040   -2.7857    5.5100 C.3       1 <0>         0.0461
     23 C19         6.4868   -3.8963    5.9531 C.2       1 <0>         0.1496
     24 N2          6.8154   -5.0406    6.4777 N.2       1 <0>        -0.5148
     25 C20         5.8933   -5.9584    6.8356 C.ar      1 <0>         0.1216
     26 C21         6.0652   -7.2372    7.4111 C.ar      1 <0>         0.1061
     27 C22         4.9750   -8.0227    7.7010 C.ar      1 <0>         0.1086
     28 C23         3.6805   -7.5890    7.4400 C.ar      1 <0>        -0.1576
     29 C24         3.4805   -6.3411    6.8767 C.ar      1 <0>         0.1905
     30 C25         4.5660   -5.5483    6.5833 C.ar      1 <0>        -0.2274
     31 S1          4.8055   -3.9339    5.8879 S.3       1 <0>         0.1650
     32 F1          2.2287   -5.9043    6.6171 F         1 <0>        -0.1151
     33 F2          5.1658   -9.2419    8.2506 F         1 <0>        -0.1148
     34 F3          7.3093   -7.6912    7.6779 F         1 <0>        -0.1088
     35 H1         -0.9591    1.9053    0.0259 H         1 <0>         0.1215
     36 H2          1.1563    3.1654    0.0076 H         1 <0>         0.1235
     37 H3          3.3051    1.9634   -0.0196 H         1 <0>         0.1252
     38 H4          1.2231   -1.7588   -0.0176 H         1 <0>         0.1241
     39 H5         -0.9258   -0.5567    0.0082 H         1 <0>         0.1230
     40 H6          3.5884   -1.6586   -0.5549 H         1 <0>         0.0678
     41 H7          4.4573   -0.1052   -0.5563 H         1 <0>         0.0693
     42 H8          5.6731   -1.7941   -0.6393 H         1 <0>         0.1251
     43 H9          7.8010   -2.9831   -0.3754 H         1 <0>         0.1198
     44 H10         5.2261   -1.5518    3.6021 H         1 <0>         0.1215
     45 H11         9.6476   -4.0333    4.2106 H         1 <0>         0.1643
     46 H12        10.4283   -4.9572    1.9253 H         1 <0>         0.0891
     47 H13         9.4570   -4.5871    0.4804 H         1 <0>         0.0842
     48 H14         8.3074   -2.7954    6.1198 H         1 <0>         0.1114
     49 H15         6.8973   -1.8277    5.6264 H         1 <0>         0.1051
     50 H16         2.8371   -8.2214    7.6748 H         1 <0>         0.1711
@<TRIPOS>BOND
     1    1    6 ar
     2    1    2 ar
     3    1   35 1
     4    2    3 ar
     5    2   36 1
     6    3    4 ar
     7    3   37 1
     8    4    5 ar
     9    4    7 1
    10    5    6 ar
    11    5   38 1
    12    6   39 1
    13    7    8 1
    14    7   40 1
    15    7   41 1
    16    8    9 1
    17    9   14 ar
    18    9   10 ar
    19   10   11 ar
    20   10   42 1
    21   11   12 ar
    22   11   43 1
    23   12   17 1
    24   12   13 ar
    25   13   14 ar
    26   13   15 1
    27   14   44 1
    28   15   16 2
    29   15   22 1
    30   16   17 1
    31   16   45 1
    32   17   18 1
    33   18   19 1
    34   18   46 1
    35   18   47 1
    36   19   20 2
    37   19   21 1
    38   22   23 1
    39   22   48 1
    40   22   49 1
    41   23   31 1
    42   23   24 2
    43   24   25 1
    44   25   30 ar
    45   25   26 ar
    46   26   27 ar
    47   26   34 1
    48   27   28 ar
    49   27   33 1
    50   28   29 ar
    51   28   50 1
    52   29   30 ar
    53   29   32 1
    54   30   31 1
@<TRIPOS>MOLECULE
CHEMBL66006
   39    41     0     0     0
SMALL
USER_CHARGES

@<TRIPOS>ATOM
      1 C1         -0.0167    1.3789    0.0096 C.ar      1 <0>        -0.1088
      2 C2          1.1705    2.0873    0.0021 C.ar      1 <0>        -0.0448
      3 C3          2.3773    1.4143   -0.0131 C.ar      1 <0>        -0.1297
      4 C4          2.3978    0.0296   -0.0207 C.ar      1 <0>         0.1240
      5 C5          1.2090   -0.6794   -0.0132 C.ar      1 <0>        -0.1429
      6 C6          0.0021   -0.0041    0.0020 C.ar      1 <0>        -0.0574
      7 Br1        -1.6226   -0.9717    0.0124 Br        1 <0>        -0.0453
      8 F1          3.5774   -0.6288   -0.0360 F         1 <0>        -0.1035
      9 C7          3.6711    2.1872   -0.0218 C.3       1 <0>         0.1631
     10 N1          4.2866    2.1240    1.3061 N.am      1 <0>        -0.3556
     11 C8          5.1457    1.1264    1.5857 C.2       1 <0>         0.4693
     12 O1          5.4061    0.2829    0.7427 O.2       1 <0>        -0.5373
     13 C9          5.7446    1.0655    2.8665 C.2       1 <0>        -0.1823
     14 C10         5.4243    2.0302    3.7642 C.2       1 <0>        -0.0227
     15 C11         4.5089    3.0277    3.3730 C.2       1 <0>         0.0605
     16 N2          3.9980    3.0245    2.1746 N.2       1 <0>        -0.1267
     17 C12         4.1219    4.1102    4.3474 C.3       1 <0>        -0.1280
     18 C13         3.1384    5.0464    3.6936 C.2       1 <0>         0.4904
     19 O2          2.7845    4.8524    2.5431 O.co2     1 <0>        -0.6576
     20 O3          2.6966    5.9977    4.3152 O.co2     1 <0>        -0.7089
     21 C14         6.0081    2.0832    5.1483 C.3       1 <0>        -0.0861
     22 C15         6.6105    0.7306    5.5272 C.3       1 <0>        -0.1193
     23 C16         7.5448    0.2813    4.3974 C.3       1 <0>        -0.1190
     24 C17         6.6945   -0.0573    3.1731 C.3       1 <0>        -0.0515
     25 H1         -0.9593    1.9058    0.0260 H         1 <0>         0.1415
     26 H2          1.1548    3.1671    0.0077 H         1 <0>         0.1547
     27 H3          1.2239   -1.7592   -0.0195 H         1 <0>         0.1422
     28 H4          4.3485    1.7534   -0.7573 H         1 <0>         0.1092
     29 H5          3.4714    3.2270   -0.2806 H         1 <0>         0.1182
     30 H6          3.6643    3.6597    5.2282 H         1 <0>         0.0787
     31 H7          5.0110    4.6667    4.6442 H         1 <0>         0.0790
     32 H8          6.7864    2.8456    5.1816 H         1 <0>         0.0881
     33 H9          5.2235    2.3396    5.8602 H         1 <0>         0.0887
     34 H10         7.1765    0.8283    6.4536 H         1 <0>         0.0701
     35 H11         5.8137   -0.0018    5.6567 H         1 <0>         0.0657
     36 H12         8.2374    1.0863    4.1520 H         1 <0>         0.0654
     37 H13         8.1030   -0.6006    4.7118 H         1 <0>         0.0682
     38 H14         6.1264   -0.9666    3.3692 H         1 <0>         0.0727
     39 H15         7.3470   -0.2215    2.3156 H         1 <0>         0.0777
@<TRIPOS>BOND
     1    1    6 ar
     2    1    2 ar
     3    1   25 1
     4    2    3 ar
     5    2   26 1
     6    3    4 ar
     7    3    9 1
     8    4    5 ar
     9    4    8 1
    10    5    6 ar
    11    5   27 1
    12    6    7 1
    13    9   10 1
    14    9   28 1
    15    9   29 1
    16   10   16 1
    17   10   11 am
    18   11   12 2
    19   11   13 1
    20   13   24 1
    21   13   14 2
    22   14   15 1
    23   14   21 1
    24   15   16 2
    25   15   17 1
    26   17   18 1
    27   17   30 1
    28   17   31 1
    29   18   19 2
    30   18   20 1
    31   21   22 1
    32   21   32 1
    33   21   33 1
    34   22   23 1
    35   22   34 1
    36   22   35 1
    37   23   24 1
    38   23   36 1
    39   23   37 1
    40   24   38 1
    41   24   39 1
@<TRIPOS>MOLECULE
CHEMBL304995
   41    44     0     0     0
SMALL
USER_CHARGES

@<TRIPOS>ATOM
      1 C1         -0.0171    1.4069    0.0098 C.ar      1 <0>        -0.1017
      2 C2          1.1569    2.1194    0.0024 C.ar      1 <0>         0.1389
      3 C3          2.3912    1.4812   -0.0128 C.ar      1 <0>        -0.1738
      4 C4          2.4430    0.0980   -0.0208 C.ar      1 <0>         0.1906
      5 C5          1.2718   -0.6228   -0.0135 C.ar      1 <0>        -0.2423
      6 C6          0.0021   -0.0041    0.0020 C.ar      1 <0>         0.1450
      7 N1         -1.0220   -0.8821    0.0067 N.2       1 <0>        -0.4731
      8 C7         -0.8314   -2.1694   -0.0024 C.2       1 <0>         0.1012
      9 S1          0.8425   -2.3440   -0.0186 S.3       1 <0>         0.1597
     10 C8         -1.8738   -3.2577    0.0008 C.3       1 <0>         0.2061
     11 N2         -2.2241   -3.6024   -1.3793 N.am      1 <0>        -0.3568
     12 C9         -1.5368   -4.5732   -2.0090 C.2       1 <0>         0.4747
     13 O1         -0.6303   -5.1571   -1.4370 O.2       1 <0>        -0.5503
     14 C10        -1.8759   -4.9107   -3.3410 C.2       1 <0>        -0.1821
     15 C11        -2.8942   -4.2344   -3.9282 C.2       1 <0>        -0.0177
     16 C12        -3.5458   -3.2313   -3.1831 C.2       1 <0>         0.0682
     17 N3         -3.1831   -2.9751   -1.9583 N.2       1 <0>        -0.1214
     18 C13        -4.6752   -2.4523   -3.8063 C.3       1 <0>        -0.1300
     19 C14        -5.2002   -1.4474   -2.8135 C.2       1 <0>         0.4875
     20 O2         -4.7033   -1.3709   -1.7028 O.co2     1 <0>        -0.6498
     21 O3         -6.1219   -0.7109   -3.1210 O.co2     1 <0>        -0.7093
     22 C15        -3.3585   -4.5144   -5.3302 C.3       1 <0>        -0.0874
     23 C16        -2.2920   -5.2907   -6.1021 C.3       1 <0>        -0.1198
     24 C17        -1.8645   -6.4981   -5.2592 C.3       1 <0>        -0.1192
     25 C18        -1.0967   -5.9885   -4.0396 C.3       1 <0>        -0.0523
     26 F1          3.6344   -0.5388   -0.0360 F         1 <0>        -0.1212
     27 F2          1.1108    3.4696    0.0097 F         1 <0>        -0.1247
     28 H1         -0.9617    1.9302    0.0261 H         1 <0>         0.1580
     29 H2          3.3031    2.0599   -0.0188 H         1 <0>         0.1619
     30 H3         -1.4778   -4.1386    0.5060 H         1 <0>         0.1305
     31 H4         -2.7631   -2.9074    0.5247 H         1 <0>         0.1428
     32 H5         -4.3121   -1.9319   -4.6925 H         1 <0>         0.0796
     33 H6         -5.4757   -3.1361   -4.0890 H         1 <0>         0.0809
     34 H7         -4.2759   -5.1018   -5.2948 H         1 <0>         0.0904
     35 H8         -3.5555   -3.5708   -5.8391 H         1 <0>         0.0902
     36 H9         -2.7037   -5.6338   -7.0512 H         1 <0>         0.0713
     37 H10        -1.4308   -4.6477   -6.2841 H         1 <0>         0.0661
     38 H11        -2.7468   -7.0491   -4.9335 H         1 <0>         0.0663
     39 H12        -1.2221   -7.1499   -5.8512 H         1 <0>         0.0694
     40 H13        -0.1353   -5.5877   -4.3607 H         1 <0>         0.0741
     41 H14        -0.9268   -6.8151   -3.3496 H         1 <0>         0.0795
@<TRIPOS>BOND
     1    1    6 ar
     2    1    2 ar
     3    1   28 1
     4    2    3 ar
     5    2   27 1
     6    3    4 ar
     7    3   29 1
     8    4    5 ar
     9    4   26 1
    10    5    9 1
    11    5    6 ar
    12    6    7 1
    13    7    8 2
    14    8    9 1
    15    8   10 1
    16   10   11 1
    17   10   30 1
    18   10   31 1
    19   11   17 1
    20   11   12 am
    21   12   13 2
    22   12   14 1
    23   14   25 1
    24   14   15 2
    25   15   16 1
    26   15   22 1
    27   16   17 2
    28   16   18 1
    29   18   19 1
    30   18   32 1
    31   18   33 1
    32   19   20 2
    33   19   21 1
    34   22   23 1
    35   22   34 1
    36   22   35 1
    37   23   24 1
    38   23   36 1
    39   23   37 1
    40   24   25 1
    41   24   38 1
    42   24   39 1
    43   25   40 1
    44   25   41 1
@<TRIPOS>MOLECULE
CHEMBL143633
   39    41     0     0     0
SMALL
USER_CHARGES

@<TRIPOS>ATOM
      1 C1         -0.0089    1.3697    0.0013 C.ar      1 <0>        -0.0926
      2 C2          1.1747    2.0964   -0.0146 C.ar      1 <0>        -0.1279
      3 C3          2.3937    1.4548   -0.0305 C.ar      1 <0>        -0.0565
      4 C4          2.4335    0.0611   -0.0301 C.ar      1 <0>        -0.1307
      5 C5          1.2266   -0.6748   -0.0134 C.ar      1 <0>        -0.0414
      6 C6          0.0061    0.0029    0.0020 C.ar      1 <0>        -0.1003
      7 C7          1.2985   -2.1360   -0.0139 C.2       1 <0>         0.1265
      8 N1          2.4544   -2.7301   -0.0290 N.2       1 <0>        -0.1261
      9 N2          3.6612   -2.0303   -0.0456 N.am      1 <0>        -0.4283
     10 C8          3.6998   -0.6814   -0.0470 C.2       1 <0>         0.5270
     11 O1          4.7652   -0.0911   -0.0621 O.2       1 <0>        -0.5443
     12 C9          4.9199   -2.7797   -0.0619 C.3       1 <0>         0.1225
     13 C10         5.3705   -3.0357    1.3531 C.2       1 <0>         0.5066
     14 O2          4.7057   -2.6319    2.2837 O.2       1 <0>        -0.4979
     15 N3          6.5123   -3.7134    1.5846 N.am      1 <0>        -0.6748
     16 C11         6.9812   -3.8675    2.8939 C.ar      1 <0>         0.1669
     17 C12         8.3465   -3.8604    3.1494 C.ar      1 <0>        -0.1438
     18 C13         8.8068   -4.0122    4.4425 C.ar      1 <0>        -0.0909
     19 C14         7.9103   -4.1718    5.4832 C.ar      1 <0>        -0.1316
     20 C15         6.5494   -4.1795    5.2326 C.ar      1 <0>        -0.0151
     21 C16         6.0826   -4.0222    3.9408 C.ar      1 <0>        -0.1136
     22 Cl1         5.4274   -4.3807    6.5419 Cl        1 <0>        -0.0669
     23 C17         0.0320   -2.9526    0.0036 C.3       1 <0>        -0.1324
     24 C18         0.3797   -4.4190   -0.0006 C.2       1 <0>         0.4908
     25 O3          1.5476   -4.7685   -0.0164 O.co2     1 <0>        -0.6550
     26 O4         -0.5070   -5.2557    0.0117 O.co2     1 <0>        -0.7043
     27 H1         -0.9542    1.8919    0.0178 H         1 <0>         0.1301
     28 H2          1.1390    3.1758   -0.0149 H         1 <0>         0.1298
     29 H3          3.3101    2.0261   -0.0436 H         1 <0>         0.1370
     30 H4         -0.9216   -0.5500    0.0141 H         1 <0>         0.1405
     31 H5          4.7700   -3.7306   -0.5732 H         1 <0>         0.1330
     32 H6          5.6804   -2.2012   -0.5864 H         1 <0>         0.1235
     33 H7          7.0090   -4.0942    0.8436 H         1 <0>         0.4145
     34 H8          9.0476   -3.7365    2.3373 H         1 <0>         0.1321
     35 H9          9.8684   -4.0067    4.6413 H         1 <0>         0.1347
     36 H10         8.2729   -4.2911    6.4935 H         1 <0>         0.1322
     37 H11         5.0204   -4.0237    3.7458 H         1 <0>         0.1529
     38 H12        -0.5396   -2.7173    0.9013 H         1 <0>         0.0869
     39 H13        -0.5638   -2.7179   -0.8785 H         1 <0>         0.0870
@<TRIPOS>BOND
     1    1    6 ar
     2    1    2 ar
     3    1   27 1
     4    2    3 ar
     5    2   28 1
     6    3    4 ar
     7    3   29 1
     8    4   10 1
     9    4    5 ar
    10    5    6 ar
    11    5    7 1
    12    6   30 1
    13    7    8 2
    14    7   23 1
    15    8    9 1
    16    9   10 am
    17    9   12 1
    18   10   11 2
    19   12   13 1
    20   12   31 1
    21   12   32 1
    22   13   14 2
    23   13   15 am
    24   15   16 1
    25   15   33 1
    26   16   21 ar
    27   16   17 ar
    28   17   18 ar
    29   17   34 1
    30   18   19 ar
    31   18   35 1
    32   19   20 ar
    33   19   36 1
    34   20   21 ar
    35   20   22 1
    36   21   37 1
    37   23   24 1
    38   23   38 1
    39   23   39 1
    40   24   25 2
    41   24   26 1
@<TRIPOS>MOLECULE
CHEMBL36108
   46    48     0     0     0
SMALL
USER_CHARGES

@<TRIPOS>ATOM
      1 C1         -1.0779   -0.5427    0.5812 C.ar      1 <0>        -0.0910
      2 C2         -0.9718   -1.7850    1.1811 C.ar      1 <0>        -0.1265
      3 C3          0.2330   -2.4568    1.1749 C.ar      1 <0>        -0.0556
      4 C4          1.3467   -1.8805    0.5614 C.ar      1 <0>        -0.1365
      5 C5          1.2328   -0.6270   -0.0420 C.ar      1 <0>        -0.0858
      6 C6          0.0221    0.0341   -0.0286 C.ar      1 <0>        -0.1269
      7 C7          2.6410   -2.5944    0.5513 C.2       1 <0>         0.5586
      8 O1          2.7373   -3.6858    1.0780 O.2       1 <0>        -0.5066
      9 N1          3.7143   -2.0353   -0.0418 N.am      1 <0>        -0.6711
     10 C8          4.9610   -2.6647    0.0321 C.ar      1 <0>         0.1909
     11 C9          6.1198   -1.9047    0.1260 C.ar      1 <0>        -0.1660
     12 C10         7.3493   -2.5294    0.1993 C.ar      1 <0>         0.0032
     13 C11         7.4275   -3.9098    0.1789 C.ar      1 <0>        -0.6886
     14 C12         6.2758   -4.6694    0.0851 C.ar      1 <0>         0.0005
     15 C13         5.0427   -4.0511    0.0176 C.ar      1 <0>        -0.1421
     16 S1          8.9983   -4.7028    0.2721 S.o2      1 <0>         2.6897
     17 O2          8.8403   -5.9871   -0.3150 O.2       1 <0>        -0.9428
     18 O3          9.9559   -3.7634   -0.1967 O.2       1 <0>        -0.9538
     19 N2          9.3263   -4.9526    1.8759 N.pl3     1 <0>        -0.9182
     20 C14         9.0012   -6.2383    2.4984 C.3       1 <0>         0.0523
     21 C15        10.2183   -7.1268    2.4812 C.2       1 <0>         0.4861
     22 O4         11.2607   -6.7234    1.9941 O.co2     1 <0>        -0.6790
     23 O5         10.1606   -8.2490    2.9544 O.co2     1 <0>        -0.6971
     24 C16         9.9128   -3.9376    2.6352 C.ar      1 <0>         0.1593
     25 C17         9.2545   -3.4326    3.7493 C.ar      1 <0>        -0.1256
     26 C18         9.8375   -2.4293    4.4981 C.ar      1 <0>        -0.1204
     27 C19        11.0751   -1.9270    4.1396 C.ar      1 <0>        -0.1295
     28 C20        11.7332   -2.4274    3.0311 C.ar      1 <0>        -0.1150
     29 C21        11.1584   -3.4347    2.2813 C.ar      1 <0>        -0.0863
     30 H1         -2.0246   -0.0230    0.5849 H         1 <0>         0.1290
     31 H2         -1.8341   -2.2295    1.6557 H         1 <0>         0.1323
     32 H3          0.3146   -3.4262    1.6438 H         1 <0>         0.1390
     33 H4          2.0907   -0.1755   -0.5180 H         1 <0>         0.1262
     34 H5         -0.0674    1.0041   -0.4951 H         1 <0>         0.1309
     35 H6          3.6221   -1.1964   -0.5199 H         1 <0>         0.4121
     36 H7          6.0594   -0.8265    0.1413 H         1 <0>         0.1343
     37 H8          8.2507   -1.9390    0.2724 H         1 <0>         0.1446
     38 H9          6.3403   -5.7473    0.0690 H         1 <0>         0.1453
     39 H10         4.1432   -4.6449   -0.0512 H         1 <0>         0.1477
     40 H11         8.6860   -6.0738    3.5288 H         1 <0>         0.0788
     41 H12         8.1941   -6.7169    1.9437 H         1 <0>         0.0839
     42 H13         8.2876   -3.8239    4.0294 H         1 <0>         0.1215
     43 H14         9.3262   -2.0362    5.3644 H         1 <0>         0.1192
     44 H15        11.5285   -1.1419    4.7265 H         1 <0>         0.1177
     45 H16        12.6996   -2.0330    2.7539 H         1 <0>         0.1230
     46 H17        11.6750   -3.8282    1.4183 H         1 <0>         0.1384
@<TRIPOS>BOND
     1    1    6 ar
     2    1    2 ar
     3    1   30 1
     4    2    3 ar
     5    2   31 1
     6    3    4 ar
     7    3   32 1
     8    4    5 ar
     9    4    7 1
    10    5    6 ar
    11    5   33 1
    12    6   34 1
    13    7    8 2
    14    7    9 am
    15    9   10 1
    16    9   35 1
    17   10   15 ar
    18   10   11 ar
    19   11   12 ar
    20   11   36 1
    21   12   13 ar
    22   12   37 1
    23   13   14 ar
    24   13   16 1
    25   14   15 ar
    26   14   38 1
    27   15   39 1
    28   16   17 2
    29   16   18 2
    30   16   19 1
    31   19   20 1
    32   19   24 1
    33   20   21 1
    34   20   40 1
    35   20   41 1
    36   21   22 2
    37   21   23 1
    38   24   29 ar
    39   24   25 ar
    40   25   26 ar
    41   25   42 1
    42   26   27 ar
    43   26   43 1
    44   27   28 ar
    45   27   44 1
    46   28   29 ar
    47   28   45 1
    48   29   46 1
@<TRIPOS>MOLECULE
CHEMBL143387
   41    44     0     0     0
SMALL
USER_CHARGES

@<TRIPOS>ATOM
      1 C1         -0.0165    1.3627    0.0095 C.ar      1 <0>        -0.0946
      2 C2          1.1654    2.0924    0.0022 C.ar      1 <0>        -0.1290
      3 C3          2.3861    1.4540   -0.0134 C.ar      1 <0>        -0.0573
      4 C4          2.4294    0.0605   -0.0213 C.ar      1 <0>        -0.1327
      5 C5          1.2244   -0.6786   -0.0133 C.ar      1 <0>        -0.0440
      6 C6          0.0021   -0.0041    0.0020 C.ar      1 <0>        -0.1016
      7 C7          1.3000   -2.1396   -0.0224 C.2       1 <0>         0.1188
      8 N1          2.4575   -2.7306   -0.0371 N.2       1 <0>        -0.1299
      9 N2          3.6626   -2.0276   -0.0452 N.am      1 <0>        -0.4387
     10 C8          3.6977   -0.6787   -0.0384 C.2       1 <0>         0.5186
     11 O1          4.7616   -0.0856   -0.0461 O.2       1 <0>        -0.5261
     12 C9          4.9232   -2.7737   -0.0618 C.3       1 <0>         0.2100
     13 C10         5.3696   -3.0372    1.3533 C.2       1 <0>         0.0241
     14 C11         5.0615   -4.2160    1.9559 C.2       1 <0>        -0.1448
     15 S1          5.8193   -3.9756    3.5580 S.3       1 <0>         0.0288
     16 C12         6.4620   -2.3356    3.2510 C.2       1 <0>         0.1158
     17 N3          6.0611   -2.1310    2.0040 N.2       1 <0>        -0.4572
     18 C13         7.2365   -1.4489    4.1450 C.ar      1 <0>        -0.0331
     19 C14         7.6404   -0.1881    3.7037 C.ar      1 <0>        -0.0464
     20 C15         8.3625    0.6349    4.5428 C.ar      1 <0>        -0.1296
     21 C16         8.6877    0.2137    5.8203 C.ar      1 <0>        -0.0807
     22 C17         8.2916   -1.0339    6.2660 C.ar      1 <0>        -0.1529
     23 C18         7.5626   -1.8669    5.4379 C.ar      1 <0>         0.1156
     24 F1          7.1709   -3.0836    5.8756 F         1 <0>        -0.1262
     25 C19         0.0356   -2.9595   -0.0143 C.3       1 <0>        -0.1317
     26 C20         0.3870   -4.4249   -0.0262 C.2       1 <0>         0.4909
     27 O2          1.5559   -4.7714   -0.0401 O.co2     1 <0>        -0.6548
     28 O3         -0.4975   -5.2640   -0.0221 O.co2     1 <0>        -0.7049
     29 H1         -0.9631    1.8823    0.0259 H         1 <0>         0.1289
     30 H2          1.1269    3.1717    0.0083 H         1 <0>         0.1287
     31 H3          3.3010    2.0277   -0.0197 H         1 <0>         0.1365
     32 H4         -0.9242   -0.5594    0.0075 H         1 <0>         0.1391
     33 H5          4.7775   -3.7219   -0.5793 H         1 <0>         0.1128
     34 H6          5.6841   -2.1901   -0.5800 H         1 <0>         0.1040
     35 H7          4.5111   -5.0629    1.5735 H         1 <0>         0.2115
     36 H8          7.3884    0.1426    2.7069 H         1 <0>         0.1476
     37 H9          8.6752    1.6107    4.2017 H         1 <0>         0.1366
     38 H10         9.2539    0.8625    6.4723 H         1 <0>         0.1364
     39 H11         8.5491   -1.3566    7.2640 H         1 <0>         0.1416
     40 H12        -0.5398   -2.7311    0.8829 H         1 <0>         0.0844
     41 H13        -0.5578   -2.7210   -0.8970 H         1 <0>         0.0855
@<TRIPOS>BOND
     1    1    6 ar
     2    1    2 ar
     3    1   29 1
     4    2    3 ar
     5    2   30 1
     6    3    4 ar
     7    3   31 1
     8    4   10 1
     9    4    5 ar
    10    5    6 ar
    11    5    7 1
    12    6   32 1
    13    7    8 2
    14    7   25 1
    15    8    9 1
    16    9   10 am
    17    9   12 1
    18   10   11 2
    19   12   13 1
    20   12   33 1
    21   12   34 1
    22   13   17 1
    23   13   14 2
    24   14   15 1
    25   14   35 1
    26   15   16 1
    27   16   17 2
    28   16   18 1
    29   18   23 ar
    30   18   19 ar
    31   19   20 ar
    32   19   36 1
    33   20   21 ar
    34   20   37 1
    35   21   22 ar
    36   21   38 1
    37   22   23 ar
    38   22   39 1
    39   23   24 1
    40   25   26 1
    41   25   40 1
    42   25   41 1
    43   26   27 2
    44   26   28 1
@<TRIPOS>MOLECULE
CHEMBL274727
   35    37     0     0     0
SMALL
USER_CHARGES

@<TRIPOS>ATOM
      1 C1         -0.0168    1.3846    0.0097 C.ar      1 <0>        -0.1573
      2 C2          1.1705    2.0903    0.0021 C.ar      1 <0>        -0.1077
      3 C3          2.3788    1.4144   -0.0131 C.ar      1 <0>        -0.0192
      4 C4          2.4000    0.0299   -0.0212 C.ar      1 <0>        -0.0939
      5 C5          1.2152   -0.6799   -0.0141 C.ar      1 <0>        -0.2372
      6 C6          0.0021   -0.0041    0.0020 C.ar      1 <0>         0.2716
      7 N1         -1.1985   -0.7206    0.0101 N.2       1 <0>        -1.0950
      8 S1         -1.1747   -2.3764    0.0010 S.o2      1 <0>         2.5814
      9 O1         -0.6304   -2.7678   -1.2520 O.2       1 <0>        -1.0246
     10 O2         -0.6057   -2.7812    1.2386 O.2       1 <0>        -0.9842
     11 C7         -2.8501   -2.9217    0.0147 C.ar      1 <0>        -0.5935
     12 C8         -3.3598   -3.6159   -1.0670 C.ar      1 <0>        -0.0157
     13 C9         -4.6739   -4.0434   -1.0570 C.ar      1 <0>        -0.1248
     14 C10        -5.4795   -3.7770    0.0360 C.ar      1 <0>         0.0028
     15 C11        -4.9689   -3.0828    1.1181 C.ar      1 <0>        -0.1201
     16 C12        -3.6528   -2.6602    1.1091 C.ar      1 <0>         0.0103
     17 C13        -3.0947   -1.9088    2.2903 C.3       1 <0>         0.1096
     18 C14        -2.4032   -2.8586    3.2481 C.2       1 <0>         0.5146
     19 O3         -1.4411   -3.5593    3.0176 O.2       1 <0>        -0.3762
     20 N2         -3.0798   -2.7614    4.4096 N.am      1 <0>        -0.6862
     21 C15        -4.0922   -1.8913    4.3196 C.2       1 <0>         0.7078
     22 O4         -4.8455   -1.6340    5.2380 O.2       1 <0>        -0.5547
     23 N3         -4.1828   -1.3327    3.0992 N.am      1 <0>        -0.7160
     24 Cl1        -7.1306   -4.3132    0.0490 Cl        1 <0>        -0.0654
     25 F1          3.5389    2.1068   -0.0204 F         1 <0>        -0.1642
     26 H1         -0.9590    1.9121    0.0260 H         1 <0>         0.1227
     27 H2          1.1563    3.1702    0.0077 H         1 <0>         0.1178
     28 H3          3.3436   -0.4952   -0.0333 H         1 <0>         0.1152
     29 H4          1.2321   -1.7598   -0.0211 H         1 <0>         0.1075
     30 H5         -2.7309   -3.8238   -1.9200 H         1 <0>         0.1540
     31 H6         -5.0721   -4.5850   -1.9023 H         1 <0>         0.1419
     32 H7         -5.5973   -2.8745    1.9714 H         1 <0>         0.1401
     33 H8         -2.4094   -1.1289    1.9582 H         1 <0>         0.1664
     34 H9         -2.8603   -3.2610    5.2115 H         1 <0>         0.4304
     35 H10        -4.8369   -0.6780    2.8085 H         1 <0>         0.4417
@<TRIPOS>BOND
     1    1    6 ar
     2    1    2 ar
     3    1   26 1
     4    2    3 ar
     5    2   27 1
     6    3    4 ar
     7    3   25 1
     8    4    5 ar
     9    4   28 1
    10    5    6 ar
    11    5   29 1
    12    6    7 1
    13    7    8 1
    14    8    9 2
    15    8   10 2
    16    8   11 1
    17   11   16 ar
    18   11   12 ar
    19   12   13 ar
    20   12   30 1
    21   13   14 ar
    22   13   31 1
    23   14   15 ar
    24   14   24 1
    25   15   16 ar
    26   15   32 1
    27   16   17 1
    28   17   23 1
    29   17   18 1
    30   17   33 1
    31   18   19 2
    32   18   20 am
    33   20   21 am
    34   20   34 1
    35   21   22 2
    36   21   23 am
    37   23   35 1
@<TRIPOS>MOLECULE
CHEMBL274727__1
   36    38     0     0     0
SMALL
USER_CHARGES

@<TRIPOS>ATOM
      1 C1         -0.6293   -0.4693    2.6586 C.ar      1 <0>        -0.0987
      2 C2         -0.9153   -0.6974    3.9905 C.ar      1 <0>        -0.1352
      3 C3         -2.0496   -1.4085    4.3442 C.ar      1 <0>         0.0972
      4 C4         -2.8993   -1.8927    3.3641 C.ar      1 <0>        -0.1286
      5 C5         -2.6171   -1.6674    2.0309 C.ar      1 <0>        -0.1187
      6 C6         -1.4804   -0.9537    1.6739 C.ar      1 <0>         0.1256
      7 N1         -1.1932   -0.7236    0.3250 N.pl3     1 <0>        -1.0589
      8 S1         -1.3031   -1.9627   -0.7681 S.o2      1 <0>         2.6754
      9 O1         -2.5929   -2.5360   -0.6038 O.2       1 <0>        -0.9371
     10 O2         -0.8514   -1.4474   -2.0129 O.2       1 <0>        -0.9143
     11 C7         -0.1394   -3.1926   -0.2801 C.ar      1 <0>        -0.6541
     12 C8         -0.5795   -4.4426    0.1141 C.ar      1 <0>         0.0019
     13 C9          0.3326   -5.4074    0.4974 C.ar      1 <0>        -0.1154
     14 C10         1.6866   -5.1224    0.4861 C.ar      1 <0>         0.0217
     15 C11         2.1263   -3.8718    0.0911 C.ar      1 <0>        -0.1103
     16 C12         1.2133   -2.9091   -0.2970 C.ar      1 <0>         0.0063
     17 C13         1.6925   -1.5484   -0.7327 C.3       1 <0>         0.1152
     18 C14         2.0747   -1.5620   -2.1995 C.2       1 <0>         0.5270
     19 O3          1.3515   -1.8018   -3.1425 O.2       1 <0>        -0.4045
     20 N2          3.3856   -1.2515   -2.2373 N.am      1 <0>        -0.6789
     21 C15         3.8795   -1.0456   -1.0111 C.2       1 <0>         0.7064
     22 O4          5.0381   -0.7525   -0.7898 O.2       1 <0>        -0.5286
     23 N3          2.9504   -1.1989   -0.0504 N.am      1 <0>        -0.7174
     24 Cl1         2.8330   -6.3338    0.9679 Cl        1 <0>        -0.0395
     25 F1         -2.3274   -1.6304    5.6476 F         1 <0>        -0.1348
     26 H1          0.2531    0.0892    2.3833 H         1 <0>         0.1393
     27 H2         -0.2535   -0.3212    4.7566 H         1 <0>         0.1433
     28 H3         -3.7833   -2.4474    3.6422 H         1 <0>         0.1461
     29 H4         -3.2797   -2.0459    1.2667 H         1 <0>         0.1658
     30 H5         -0.9295    0.1619    0.0295 H         1 <0>         0.4293
     31 H6         -1.6364   -4.6649    0.1229 H         1 <0>         0.1623
     32 H7         -0.0114   -6.3836    0.8060 H         1 <0>         0.1530
     33 H8          3.1830   -3.6487    0.0821 H         1 <0>         0.1466
     34 H9          0.9293   -0.7944   -0.5399 H         1 <0>         0.1270
     35 H10         3.9067   -1.1858   -3.0528 H         1 <0>         0.4396
     36 H11         3.0828   -1.0986    0.9053 H         1 <0>         0.4461
@<TRIPOS>BOND
     1    1    6 ar
     2    1    2 ar
     3    1   26 1
     4    2    3 ar
     5    2   27 1
     6    3    4 ar
     7    3   25 1
     8    4    5 ar
     9    4   28 1
    10    5    6 ar
    11    5   29 1
    12    6    7 1
    13    7    8 1
    14    7   30 1
    15    8    9 2
    16    8   10 2
    17    8   11 1
    18   11   16 ar
    19   11   12 ar
    20   12   13 ar
    21   12   31 1
    22   13   14 ar
    23   13   32 1
    24   14   15 ar
    25   14   24 1
    26   15   16 ar
    27   15   33 1
    28   16   17 1
    29   17   23 1
    30   17   18 1
    31   17   34 1
    32   18   19 2
    33   18   20 am
    34   20   21 am
    35   20   35 1
    36   21   22 2
    37   21   23 am
    38   23   36 1
@<TRIPOS>MOLECULE
CHEMBL274727__2
   35    37     0     0     0
SMALL
USER_CHARGES

@<TRIPOS>ATOM
      1 C1         -0.0168    1.3846    0.0097 C.ar      1 <0>        -0.1477
      2 C2          1.1705    2.0903    0.0021 C.ar      1 <0>        -0.1099
      3 C3          2.3788    1.4144   -0.0131 C.ar      1 <0>        -0.0230
      4 C4          2.4000    0.0299   -0.0212 C.ar      1 <0>        -0.0943
      5 C5          1.2152   -0.6799   -0.0141 C.ar      1 <0>        -0.2449
      6 C6          0.0021   -0.0041    0.0020 C.ar      1 <0>         0.2716
      7 N1         -1.1985   -0.7206    0.0101 N.2       1 <0>        -1.0383
      8 S1         -1.1747   -2.3764    0.0010 S.o2      1 <0>         2.5763
      9 O1         -0.6304   -2.7678   -1.2520 O.2       1 <0>        -1.0227
     10 O2         -0.6057   -2.7812    1.2386 O.2       1 <0>        -1.0276
     11 C7         -2.8501   -2.9217    0.0147 C.ar      1 <0>        -0.5919
     12 C8         -3.3598   -3.6159   -1.0670 C.ar      1 <0>        -0.0151
     13 C9         -4.6739   -4.0434   -1.0570 C.ar      1 <0>        -0.1249
     14 C10        -5.4795   -3.7770    0.0360 C.ar      1 <0>         0.0036
     15 C11        -4.9689   -3.0828    1.1181 C.ar      1 <0>        -0.1196
     16 C12        -3.6528   -2.6602    1.1091 C.ar      1 <0>         0.0125
     17 C13        -3.0947   -1.9088    2.2903 C.3       1 <0>         0.0942
     18 C14        -3.3191   -0.4184    2.1287 C.2       1 <0>         0.5071
     19 O3         -2.8892    0.2956    1.2483 O.2       1 <0>        -0.3587
     20 N2         -4.0967   -0.0524    3.1668 N.am      1 <0>        -0.6859
     21 C15        -4.3916   -1.0935    3.9536 C.2       1 <0>         0.7073
     22 O4         -5.0790   -1.0120    4.9526 O.2       1 <0>        -0.5575
     23 N3         -3.8420   -2.2406    3.5157 N.am      1 <0>        -0.7178
     24 Cl1        -7.1306   -4.3132    0.0490 Cl        1 <0>        -0.0652
     25 F1          3.5389    2.1068   -0.0204 F         1 <0>        -0.1656
     26 H1         -0.9590    1.9121    0.0260 H         1 <0>         0.1256
     27 H2          1.1563    3.1702    0.0077 H         1 <0>         0.1161
     28 H3          3.3436   -0.4952   -0.0333 H         1 <0>         0.1132
     29 H4          1.2321   -1.7598   -0.0211 H         1 <0>         0.1040
     30 H5         -2.7309   -3.8238   -1.9200 H         1 <0>         0.1544
     31 H6         -5.0721   -4.5850   -1.9023 H         1 <0>         0.1422
     32 H7         -5.5973   -2.8745    1.9714 H         1 <0>         0.1391
     33 H8         -2.0345   -2.1279    2.4165 H         1 <0>         0.1737
     34 H9         -4.4040    0.8540    3.3244 H         1 <0>         0.4304
     35 H10        -3.9224   -3.1157    3.9265 H         1 <0>         0.4395
@<TRIPOS>BOND
     1    1    6 ar
     2    1    2 ar
     3    1   26 1
     4    2    3 ar
     5    2   27 1
     6    3    4 ar
     7    3   25 1
     8    4    5 ar
     9    4   28 1
    10    5    6 ar
    11    5   29 1
    12    6    7 1
    13    7    8 1
    14    8    9 2
    15    8   10 2
    16    8   11 1
    17   11   16 ar
    18   11   12 ar
    19   12   13 ar
    20   12   30 1
    21   13   14 ar
    22   13   31 1
    23   14   15 ar
    24   14   24 1
    25   15   16 ar
    26   15   32 1
    27   16   17 1
    28   17   23 1
    29   17   18 1
    30   17   33 1
    31   18   19 2
    32   18   20 am
    33   20   21 am
    34   20   34 1
    35   21   22 2
    36   21   23 am
    37   23   35 1
@<TRIPOS>MOLECULE
CHEMBL274727__3
   36    38     0     0     0
SMALL
USER_CHARGES

@<TRIPOS>ATOM
      1 C1         -1.0980   -2.8088   -5.2000 C.ar      1 <0>        -0.0958
      2 C2         -1.0279   -3.8631   -6.0895 C.ar      1 <0>        -0.1263
      3 C3         -0.5574   -5.0954   -5.6684 C.ar      1 <0>         0.0935
      4 C4         -0.1566   -5.2738   -4.3550 C.ar      1 <0>        -0.1202
      5 C5         -0.2255   -4.2224   -3.4620 C.ar      1 <0>        -0.1366
      6 C6         -0.6962   -2.9853   -3.8824 C.ar      1 <0>         0.1435
      7 N1         -0.7659   -1.9193   -2.9803 N.pl3     1 <0>        -1.0596
      8 S1         -1.4064   -2.1523   -1.4711 S.o2      1 <0>         2.6747
      9 O1         -1.3493   -0.8971   -0.8074 O.2       1 <0>        -0.9126
     10 O2         -2.6230   -2.8639   -1.6516 O.2       1 <0>        -0.9288
     11 C7         -0.3162   -3.2308   -0.6033 C.ar      1 <0>        -0.6609
     12 C8         -0.7547   -4.4786   -0.2001 C.ar      1 <0>        -0.0025
     13 C9          0.0997   -5.3247    0.4809 C.ar      1 <0>        -0.1144
     14 C10         1.3944   -4.9232    0.7589 C.ar      1 <0>         0.0216
     15 C11         1.8326   -3.6749    0.3549 C.ar      1 <0>        -0.1084
     16 C12         0.9786   -2.8314   -0.3309 C.ar      1 <0>         0.0053
     17 C13         1.4576   -1.4737   -0.7760 C.3       1 <0>         0.1149
     18 C14         1.3403   -0.4699    0.3537 C.2       1 <0>         0.5271
     19 O3          0.3272   -0.1206    0.9207 O.2       1 <0>        -0.4050
     20 N2          2.5966   -0.0471    0.5974 N.am      1 <0>        -0.6786
     21 C15         3.4820   -0.6381   -0.2130 C.2       1 <0>         0.7062
     22 O4          4.6770   -0.4182   -0.1831 O.2       1 <0>        -0.5281
     23 N3          2.9019   -1.5026   -1.0649 N.am      1 <0>        -0.7167
     24 Cl1         2.4681   -5.9853    1.6148 Cl        1 <0>        -0.0376
     25 F1         -0.4896   -6.1253   -6.5401 F         1 <0>        -0.1342
     26 H1         -1.4608   -1.8465   -5.5300 H         1 <0>         0.1439
     27 H2         -1.3406   -3.7263   -7.1141 H         1 <0>         0.1456
     28 H3          0.2097   -6.2359   -4.0286 H         1 <0>         0.1445
     29 H4          0.0865   -4.3623   -2.4375 H         1 <0>         0.1376
     30 H5         -0.4391   -1.0433   -3.2385 H         1 <0>         0.4289
     31 H6         -1.7652   -4.7919   -0.4172 H         1 <0>         0.1643
     32 H7         -0.2431   -6.2991    0.7964 H         1 <0>         0.1546
     33 H8          2.8430   -3.3609    0.5716 H         1 <0>         0.1476
     34 H9          0.8985   -1.1384   -1.6496 H         1 <0>         0.1262
     35 H10         2.8299    0.6055    1.2761 H         1 <0>         0.4398
     36 H11         3.3476   -2.0404   -1.7379 H         1 <0>         0.4467
@<TRIPOS>BOND
     1    1    6 ar
     2    1    2 ar
     3    1   26 1
     4    2    3 ar
     5    2   27 1
     6    3    4 ar
     7    3   25 1
     8    4    5 ar
     9    4   28 1
    10    5    6 ar
    11    5   29 1
    12    6    7 1
    13    7    8 1
    14    7   30 1
    15    8    9 2
    16    8   10 2
    17    8   11 1
    18   11   16 ar
    19   11   12 ar
    20   12   13 ar
    21   12   31 1
    22   13   14 ar
    23   13   32 1
    24   14   15 ar
    25   14   24 1
    26   15   16 ar
    27   15   33 1
    28   16   17 1
    29   17   23 1
    30   17   18 1
    31   17   34 1
    32   18   19 2
    33   18   20 am
    34   20   21 am
    35   20   35 1
    36   21   22 2
    37   21   23 am
    38   23   36 1
@<TRIPOS>MOLECULE
CHEMBL418106
   48    52     0     0     0
SMALL
USER_CHARGES

@<TRIPOS>ATOM
      1 C1         -0.0167    1.3787    0.0096 C.ar      1 <0>        -0.1169
      2 C2          1.1674    2.0943    0.0022 C.ar      1 <0>        -0.1218
      3 C3          2.3766    1.4283   -0.0251 C.ar      1 <0>        -0.0855
      4 C4          2.3994    0.0383   -0.0498 C.ar      1 <0>        -0.0071
      5 C5          1.2055   -0.6812   -0.0156 C.ar      1 <0>        -0.0723
      6 C6          0.0021   -0.0041    0.0020 C.ar      1 <0>        -0.1182
      7 C7          1.2251   -2.1850    0.0362 C.3       1 <0>        -0.0745
      8 C8          2.3741   -2.7459   -0.7962 C.3       1 <0>        -0.0896
      9 C9          3.6674   -2.0730   -0.4337 C.2       1 <0>        -0.0102
     10 C10         3.6843   -0.7006   -0.0938 C.2       1 <0>         0.0601
     11 N1          4.8177   -0.1027    0.1817 N.2       1 <0>        -0.1712
     12 N2          5.9384   -0.7311    0.1759 N.am      1 <0>        -0.2918
     13 C11         6.0164   -2.0467   -0.0992 C.2       1 <0>         0.4911
     14 O1          7.0937   -2.6191   -0.0644 O.2       1 <0>        -0.5138
     15 C12         4.8409   -2.7605   -0.4284 C.2       1 <0>        -0.1780
     16 C13         4.8869   -4.2294   -0.7618 C.3       1 <0>         0.0270
     17 C14         5.2161   -4.4031   -2.2221 C.2       1 <0>         0.1252
     18 N3          6.3923   -4.5207   -2.7659 N.2       1 <0>        -0.4851
     19 C15         6.5571   -4.6728   -4.0961 C.ar      1 <0>         0.0912
     20 C16         7.7401   -4.8133   -4.8514 C.ar      1 <0>        -0.0032
     21 C17         7.6849   -4.9559   -6.2041 C.ar      1 <0>        -0.1720
     22 C18         6.4755   -4.9686   -6.8852 C.ar      1 <0>        -0.0649
     23 C19         5.2947   -4.8341   -6.1794 C.ar      1 <0>        -0.0572
     24 C20         5.3398   -4.6896   -4.8139 C.ar      1 <0>        -0.1511
     25 S1          4.1452   -4.4960   -3.5172 S.3       1 <0>         0.0956
     26 C21         8.9678   -5.1031   -6.9808 C.3       1 <0>         0.5119
     27 F1          9.2998   -6.4585   -7.0804 F         1 <0>        -0.1758
     28 F2          8.8008   -4.5685   -8.2628 F         1 <0>        -0.1746
     29 F3          9.9940   -4.4190   -6.3204 F         1 <0>        -0.1713
     30 C22         7.1681    0.0059    0.4773 C.3       1 <0>         0.0344
     31 C23         7.7496    0.5563   -0.7994 C.2       1 <0>         0.4946
     32 O2          7.1888    0.3518   -1.8625 O.co2     1 <0>        -0.6782
     33 O3          8.7808    1.2061   -0.7692 O.co2     1 <0>        -0.6839
     34 H1         -0.9608    1.9028    0.0260 H         1 <0>         0.1209
     35 H2          1.1458    3.1740    0.0173 H         1 <0>         0.1244
     36 H3          3.3019    1.9853   -0.0275 H         1 <0>         0.1338
     37 H4         -0.9265   -0.5556    0.0098 H         1 <0>         0.1241
     38 H5          1.3428   -2.5060    1.0712 H         1 <0>         0.0824
     39 H6          0.2815   -2.5688   -0.3516 H         1 <0>         0.0856
     40 H7          2.4622   -3.8166   -0.6119 H         1 <0>         0.0895
     41 H8          2.1666   -2.5797   -1.8533 H         1 <0>         0.0949
     42 H9          5.6520   -4.7156   -0.1565 H         1 <0>         0.1206
     43 H10         3.9168   -4.6802   -0.5520 H         1 <0>         0.1112
     44 H11         8.6978   -4.8072   -4.3524 H         1 <0>         0.1482
     45 H12         6.4573   -5.0824   -7.9591 H         1 <0>         0.1499
     46 H13         4.3463   -4.8425   -6.6960 H         1 <0>         0.1458
     47 H14         6.9420    0.8273    1.1573 H         1 <0>         0.0993
     48 H15         7.8885   -0.6651    0.9450 H         1 <0>         0.1067
@<TRIPOS>BOND
     1    1    6 ar
     2    1    2 ar
     3    1   34 1
     4    2    3 ar
     5    2   35 1
     6    3    4 ar
     7    3   36 1
     8    4   10 1
     9    4    5 ar
    10    5    6 ar
    11    5    7 1
    12    6   37 1
    13    7    8 1
    14    7   38 1
    15    7   39 1
    16    8    9 1
    17    8   40 1
    18    8   41 1
    19    9   15 2
    20    9   10 1
    21   10   11 2
    22   11   12 1
    23   12   13 am
    24   12   30 1
    25   13   14 2
    26   13   15 1
    27   15   16 1
    28   16   17 1
    29   16   42 1
    30   16   43 1
    31   17   25 1
    32   17   18 2
    33   18   19 1
    34   19   24 ar
    35   19   20 ar
    36   20   21 ar
    37   20   44 1
    38   21   22 ar
    39   21   26 1
    40   22   23 ar
    41   22   45 1
    42   23   24 ar
    43   23   46 1
    44   24   25 1
    45   26   27 1
    46   26   28 1
    47   26   29 1
    48   30   31 1
    49   30   47 1
    50   30   48 1
    51   31   32 2
    52   31   33 1
@<TRIPOS>MOLECULE
CHEMBL432927
   31    34     0     0     0
SMALL
USER_CHARGES

@<TRIPOS>ATOM
      1 C1         -0.0178    1.4599    0.0101 C.2       1 <0>        -0.0149
      2 C2          1.1651    2.1218    0.0023 C.2       1 <0>        -0.2039
      3 C3          2.3771    1.4035   -0.0080 C.2       1 <0>         0.5325
      4 O1          3.4286    2.0198   -0.0186 O.2       1 <0>        -0.5235
      5 N1          2.4100    0.0551   -0.0061 N.am      1 <0>        -0.5210
      6 C4          1.2402   -0.6758   -0.0154 C.ar      1 <0>         0.2209
      7 C5          0.0021   -0.0041    0.0020 C.ar      1 <0>        -0.1192
      8 C6         -1.1923   -0.7324    0.0135 C.ar      1 <0>        -0.0283
      9 C7         -1.1522   -2.1084   -0.0032 C.ar      1 <0>        -0.0651
     10 C8          0.0676   -2.7707   -0.0352 C.ar      1 <0>        -0.0343
     11 C9          1.2534   -2.0675   -0.0465 C.ar      1 <0>        -0.1282
     12 C10         2.5590   -2.8099   -0.0984 C.3       1 <0>         0.1686
     13 C11         3.6317   -1.9391   -0.7459 C.3       1 <0>        -0.1313
     14 C12         3.7161   -0.6122    0.0113 C.3       1 <0>         0.1000
     15 C13         2.4003   -4.1057   -0.8580 C.2       1 <0>         0.5390
     16 O2          2.0698   -4.2421   -2.0164 O.2       1 <0>        -0.4422
     17 N2          2.7042   -5.0796    0.0255 N.am      1 <0>        -0.6787
     18 C14         3.0292   -4.5751    1.2224 C.2       1 <0>         0.7068
     19 O3          3.3415   -5.2549    2.1802 O.2       1 <0>        -0.5281
     20 N3          2.9720   -3.2295    1.2455 N.am      1 <0>        -0.7131
     21 Cl1        -2.6308   -3.0178    0.0162 Cl        1 <0>        -0.0483
     22 H1         -0.9530    1.9998    0.0263 H         1 <0>         0.1545
     23 H2          1.1785    3.2017    0.0037 H         1 <0>         0.1623
     24 H3         -2.1415   -0.2176    0.0359 H         1 <0>         0.1544
     25 H4          0.0877   -3.8503   -0.0520 H         1 <0>         0.1364
     26 H5          4.5939   -2.4488   -0.6976 H         1 <0>         0.1108
     27 H6          3.3689   -1.7494   -1.7866 H         1 <0>         0.1062
     28 H7          4.4572    0.0299   -0.4646 H         1 <0>         0.1197
     29 H8          4.0121   -0.8021    1.0430 H         1 <0>         0.0868
     30 H9          2.6890   -6.0272   -0.1810 H         1 <0>         0.4384
     31 H10         3.1654   -2.6524    2.0007 H         1 <0>         0.4429
@<TRIPOS>BOND
     1    1    7 1
     2    1    2 2
     3    1   22 1
     4    2    3 1
     5    2   23 1
     6    3    4 2
     7    3    5 am
     8    5   14 1
     9    5    6 1
    10    6   11 ar
    11    6    7 ar
    12    7    8 ar
    13    8    9 ar
    14    8   24 1
    15    9   10 ar
    16    9   21 1
    17   10   11 ar
    18   10   25 1
    19   11   12 1
    20   12   20 1
    21   12   13 1
    22   12   15 1
    23   13   14 1
    24   13   26 1
    25   13   27 1
    26   14   28 1
    27   14   29 1
    28   15   16 2
    29   15   17 am
    30   17   18 am
    31   17   30 1
    32   18   19 2
    33   18   20 am
    34   20   31 1
@<TRIPOS>MOLECULE
CHEMBL432927__1
   31    34     0     0     0
SMALL
USER_CHARGES

@<TRIPOS>ATOM
      1 C1         -0.0178    1.4602    0.0101 C.2       1 <0>        -0.0170
      2 C2          1.1650    2.1219    0.0023 C.2       1 <0>        -0.2024
      3 C3          2.3773    1.4035   -0.0082 C.2       1 <0>         0.5317
      4 O1          3.4287    2.0199   -0.0217 O.2       1 <0>        -0.5238
      5 N1          2.4105    0.0552   -0.0032 N.am      1 <0>        -0.5158
      6 C4          1.2406   -0.6757   -0.0095 C.ar      1 <0>         0.2245
      7 C5          0.0021   -0.0041    0.0020 C.ar      1 <0>        -0.1205
      8 C6         -1.1922   -0.7323    0.0067 C.ar      1 <0>        -0.0288
      9 C7         -1.1522   -2.1083   -0.0062 C.ar      1 <0>        -0.0693
     10 C8          0.0679   -2.7708   -0.0262 C.ar      1 <0>        -0.0363
     11 C9          1.2534   -2.0677   -0.0293 C.ar      1 <0>        -0.1355
     12 C10         2.5608   -2.8078   -0.0595 C.3       1 <0>         0.1710
     13 C11         3.6321   -1.9478   -0.7236 C.3       1 <0>        -0.1282
     14 C12         3.7175   -0.6101    0.0146 C.3       1 <0>         0.0907
     15 C13         2.9835   -3.1952    1.3379 C.2       1 <0>         0.5373
     16 O2          3.2188   -2.4522    2.2666 O.2       1 <0>        -0.4444
     17 N2          3.0440   -4.5433    1.3341 N.am      1 <0>        -0.6771
     18 C14         2.7201   -5.0478    0.1370 C.2       1 <0>         0.7059
     19 O3          2.7024   -6.2370   -0.1131 O.2       1 <0>        -0.5269
     20 N3          2.4166   -4.0890   -0.7594 N.am      1 <0>        -0.7127
     21 Cl1        -2.6310   -3.0175    0.0021 Cl        1 <0>        -0.0499
     22 H1         -0.9530    2.0001    0.0263 H         1 <0>         0.1541
     23 H2          1.1784    3.2018    0.0046 H         1 <0>         0.1621
     24 H3         -2.1415   -0.2174    0.0206 H         1 <0>         0.1533
     25 H4          0.0883   -3.8506   -0.0387 H         1 <0>         0.1431
     26 H5          4.5944   -2.4568   -0.6700 H         1 <0>         0.1087
     27 H6          3.3662   -1.7733   -1.7662 H         1 <0>         0.1029
     28 H7          4.4545    0.0268   -0.4745 H         1 <0>         0.1184
     29 H8          4.0204   -0.7851    1.0469 H         1 <0>         0.1005
     30 H9          3.2917   -5.0802    2.1031 H         1 <0>         0.4382
     31 H10         2.1543   -4.2198   -1.6841 H         1 <0>         0.4464
@<TRIPOS>BOND
     1    1    7 1
     2    1    2 2
     3    1   22 1
     4    2    3 1
     5    2   23 1
     6    3    4 2
     7    3    5 am
     8    5   14 1
     9    5    6 1
    10    6   11 ar
    11    6    7 ar
    12    7    8 ar
    13    8    9 ar
    14    8   24 1
    15    9   10 ar
    16    9   21 1
    17   10   11 ar
    18   10   25 1
    19   11   12 1
    20   12   20 1
    21   12   13 1
    22   12   15 1
    23   13   14 1
    24   13   26 1
    25   13   27 1
    26   14   28 1
    27   14   29 1
    28   15   16 2
    29   15   17 am
    30   17   18 am
    31   17   30 1
    32   18   19 2
    33   18   20 am
    34   20   31 1
@<TRIPOS>MOLECULE
CHEMBL43995
   42    44     0     0     0
SMALL
USER_CHARGES

@<TRIPOS>ATOM
      1 C1         -0.0167    1.3781    0.0096 C.ar      1 <0>        -0.1244
      2 C2          1.1709    2.0855    0.0021 C.ar      1 <0>        -0.1273
      3 C3          2.3773    1.4107   -0.0130 C.ar      1 <0>        -0.0965
      4 C4          2.3960    0.0285   -0.0201 C.ar      1 <0>        -0.0970
      5 C5          1.2084   -0.6789   -0.0117 C.ar      1 <0>        -0.1063
      6 C6          0.0021   -0.0041    0.0020 C.ar      1 <0>        -0.1260
      7 C7          3.7112   -0.7071   -0.0376 C.3       1 <0>         0.1604
      8 N1          4.1518   -0.9524    1.3379 N.am      1 <0>        -0.5685
      9 C8          3.7528   -2.1823    2.0266 C.3       1 <0>         0.0349
     10 C9          4.7800   -3.2556    1.7736 C.2       1 <0>         0.4769
     11 O1          5.7550   -3.0154    1.0822 O.co2     1 <0>        -0.6786
     12 O2          4.6360   -4.3641    2.2605 O.co2     1 <0>        -0.6964
     13 C10         4.9243   -0.0466    1.9697 C.2       1 <0>         0.5315
     14 O3          5.2547    0.9716    1.3996 O.2       1 <0>        -0.5617
     15 C11         5.3776   -0.2989    3.3846 C.3       1 <0>        -0.1361
     16 C12         6.2352    0.8747    3.8623 C.3       1 <0>        -0.0229
     17 C13         6.6884    0.6224    5.2772 C.2       1 <0>         0.1367
     18 N2          7.7732    0.0225    5.6723 N.2       1 <0>        -0.5041
     19 C14         8.0685   -0.1419    6.9786 C.ar      1 <0>         0.1181
     20 C15         9.1857   -0.7604    7.5829 C.ar      1 <0>         0.1127
     21 C16         9.2922   -0.8209    8.9520 C.ar      1 <0>         0.1089
     22 C17         8.3139   -0.2810    9.7787 C.ar      1 <0>        -0.1516
     23 C18         7.2080    0.3311    9.2159 C.ar      1 <0>         0.1880
     24 C19         7.0933    0.3962    7.8464 C.ar      1 <0>        -0.2203
     25 S1          5.9094    1.0593    6.7037 S.3       1 <0>         0.1550
     26 F1          6.2483    0.8613   10.0052 F         1 <0>        -0.1149
     27 F2         10.3702   -1.4182    9.5057 F         1 <0>        -0.1131
     28 F3         10.1557   -1.2962    6.8101 F         1 <0>        -0.1053
     29 H1         -0.9591    1.9053    0.0259 H         1 <0>         0.1164
     30 H2          1.1563    3.1654    0.0076 H         1 <0>         0.1179
     31 H3          3.3051    1.9634   -0.0196 H         1 <0>         0.1288
     32 H4          1.2231   -1.7588   -0.0176 H         1 <0>         0.1214
     33 H5         -0.9258   -0.5567    0.0082 H         1 <0>         0.1186
     34 H6          3.5884   -1.6586   -0.5549 H         1 <0>         0.0844
     35 H7          4.4573   -0.1052   -0.5563 H         1 <0>         0.0899
     36 H8          3.6819   -1.9924    3.0976 H         1 <0>         0.0754
     37 H9          2.7838   -2.5110    1.6510 H         1 <0>         0.0767
     38 H10         4.5069   -0.4000    4.0325 H         1 <0>         0.0927
     39 H11         5.9651   -1.2163    3.4198 H         1 <0>         0.1094
     40 H12         7.1059    0.9758    3.2145 H         1 <0>         0.1164
     41 H13         5.6476    1.7921    3.8272 H         1 <0>         0.1070
     42 H14         8.4160   -0.3392   10.8523 H         1 <0>         0.1728
@<TRIPOS>BOND
     1    1    6 ar
     2    1    2 ar
     3    1   29 1
     4    2    3 ar
     5    2   30 1
     6    3    4 ar
     7    3   31 1
     8    4    5 ar
     9    4    7 1
    10    5    6 ar
    11    5   32 1
    12    6   33 1
    13    7    8 1
    14    7   34 1
    15    7   35 1
    16    8    9 1
    17    8   13 am
    18    9   10 1
    19    9   36 1
    20    9   37 1
    21   10   11 2
    22   10   12 1
    23   13   14 2
    24   13   15 1
    25   15   16 1
    26   15   38 1
    27   15   39 1
    28   16   17 1
    29   16   40 1
    30   16   41 1
    31   17   25 1
    32   17   18 2
    33   18   19 1
    34   19   24 ar
    35   19   20 ar
    36   20   21 ar
    37   20   28 1
    38   21   22 ar
    39   21   27 1
    40   22   23 ar
    41   22   42 1
    42   23   24 ar
    43   23   26 1
    44   24   25 1
@<TRIPOS>MOLECULE
CHEMBL67922
   41    44     0     0     0
SMALL
USER_CHARGES

@<TRIPOS>ATOM
      1 C1         -0.0164    1.3552    0.0095 C.ar      1 <0>        -0.1092
      2 C2          1.1593    2.1029    0.0023 C.ar      1 <0>        -0.1227
      3 C3          2.3822    1.5094   -0.0125 C.ar      1 <0>        -0.0940
      4 C4          2.4721    0.1037   -0.0209 C.ar      1 <0>        -0.0654
      5 C5          3.7152   -0.5417   -0.0357 C.ar      1 <0>        -0.0299
      6 C6          3.7621   -1.9225   -0.0431 C.ar      1 <0>        -0.1340
      7 C7          2.5261   -2.7112   -0.0355 C.ar      1 <0>        -0.0519
      8 C8          1.2940   -2.0812   -0.0195 C.ar      1 <0>        -0.0827
      9 C9          1.2368   -0.6822   -0.0133 C.ar      1 <0>        -0.0307
     10 C10         0.0021   -0.0041    0.0020 C.ar      1 <0>        -0.1058
     11 C11         2.6443   -4.1731   -0.0451 C.2       1 <0>         0.1269
     12 N1          3.8184   -4.7262   -0.0597 N.2       1 <0>        -0.1275
     13 N2          5.0090   -4.0034   -0.0672 N.am      1 <0>        -0.4402
     14 C12         5.0386   -2.6553   -0.0597 C.2       1 <0>         0.5241
     15 O1          6.0989   -2.0567   -0.0667 O.2       1 <0>        -0.5405
     16 C13         6.2776   -4.7359   -0.0832 C.3       1 <0>         0.1764
     17 C14         6.7262   -4.9946    1.3320 C.ar      1 <0>        -0.1366
     18 C15         7.6863   -4.1865    1.9115 C.ar      1 <0>        -0.0606
     19 C16         8.0978   -4.4229    3.2095 C.ar      1 <0>        -0.1188
     20 C17         7.5497   -5.4690    3.9302 C.ar      1 <0>        -0.0565
     21 C18         6.5896   -6.2788    3.3521 C.ar      1 <0>        -0.1439
     22 C19         6.1727   -6.0383    2.0538 C.ar      1 <0>         0.1439
     23 F1          5.2306   -6.8254    1.4897 F         1 <0>        -0.0831
     24 Br1         8.1142   -5.7918    5.7059 Br        1 <0>        -0.0479
     25 C20         1.4054   -5.0311   -0.0374 C.3       1 <0>        -0.1333
     26 C21         1.8012   -6.4851   -0.0497 C.2       1 <0>         0.4876
     27 O2          2.9801   -6.7959   -0.0634 O.co2     1 <0>        -0.6416
     28 O3          0.9426   -7.3507   -0.0459 O.co2     1 <0>        -0.7077
     29 H1         -0.9664    1.8685    0.0259 H         1 <0>         0.1228
     30 H2          1.0975    3.1811    0.0083 H         1 <0>         0.1221
     31 H3          3.2788    2.1115   -0.0182 H         1 <0>         0.1296
     32 H4          4.6285    0.0346   -0.0417 H         1 <0>         0.1438
     33 H5          0.3845   -2.6636   -0.0139 H         1 <0>         0.1458
     34 H6         -0.9236   -0.5603    0.0082 H         1 <0>         0.1328
     35 H7          6.1424   -5.6855   -0.6009 H         1 <0>         0.1109
     36 H8          7.0323   -4.1440   -0.6011 H         1 <0>         0.1042
     37 H9          8.1153   -3.3701    1.3495 H         1 <0>         0.1439
     38 H10         8.8480   -3.7909    3.6613 H         1 <0>         0.1363
     39 H11         6.1622   -7.0959    3.9143 H         1 <0>         0.1447
     40 H12         0.8232   -4.8206    0.8598 H         1 <0>         0.0838
     41 H13         0.8052   -4.8104   -0.9201 H         1 <0>         0.0845
@<TRIPOS>BOND
     1    1   10 ar
     2    1    2 ar
     3    1   29 1
     4    2    3 ar
     5    2   30 1
     6    3    4 ar
     7    3   31 1
     8    4    9 ar
     9    4    5 ar
    10    5    6 ar
    11    5   32 1
    12    6   14 1
    13    6    7 ar
    14    7    8 ar
    15    7   11 1
    16    8    9 ar
    17    8   33 1
    18    9   10 ar
    19   10   34 1
    20   11   12 2
    21   11   25 1
    22   12   13 1
    23   13   14 am
    24   13   16 1
    25   14   15 2
    26   16   17 1
    27   16   35 1
    28   16   36 1
    29   17   22 ar
    30   17   18 ar
    31   18   19 ar
    32   18   37 1
    33   19   20 ar
    34   19   38 1
    35   20   21 ar
    36   20   24 1
    37   21   22 ar
    38   21   39 1
    39   22   23 1
    40   25   26 1
    41   25   40 1
    42   25   41 1
    43   26   27 2
    44   26   28 1
@<TRIPOS>MOLECULE
CHEMBL363850
   47    51     0     0     0
SMALL
USER_CHARGES

@<TRIPOS>ATOM
      1 C1          3.3235    1.3626    3.5657 C.ar      1 <0>        -0.1610
      2 C2          3.4049   -0.0175    3.5453 C.ar      1 <0>        -0.0827
      3 C3          3.4926   -0.6878    2.3406 C.ar      1 <0>        -0.1912
      4 C4          3.4989    0.0252    1.1503 C.ar      1 <0>         0.1287
      5 C5          3.4170    1.4102    1.1735 C.ar      1 <0>        -0.1528
      6 C6          3.3295    2.0756    2.3809 C.ar      1 <0>        -0.0860
      7 O1          3.5855   -0.6316   -0.0361 O.3       1 <0>        -0.2530
      8 C7          3.6573   -1.9892   -0.0103 C.ar      1 <0>         0.0441
      9 C8          2.4888   -2.7464   -0.0461 C.ar      1 <0>        -0.1149
     10 C9          2.5435   -4.1218   -0.0208 C.ar      1 <0>        -0.0953
     11 C10         3.7739   -4.7679    0.0407 C.ar      1 <0>         0.1223
     12 C11         4.9556   -4.0063    0.0765 C.ar      1 <0>        -0.0866
     13 C12         4.8885   -2.6117    0.0455 C.ar      1 <0>        -0.0794
     14 C13         6.0573   -4.9699    0.1384 C.2       1 <0>        -0.2131
     15 C14         5.5084   -6.1950    0.1367 C.2       1 <0>         0.1149
     16 N1          4.1452   -6.0953    0.0786 N.pl3     1 <0>        -0.4333
     17 C15         3.2182   -7.2296    0.0601 C.3       1 <0>         0.0283
     18 C16         2.8626   -7.5645   -1.3655 C.2       1 <0>         0.4817
     19 O2          3.3392   -6.9158   -2.2812 O.co2     1 <0>        -0.6699
     20 O3          2.0981   -8.4841   -1.6032 O.co2     1 <0>        -0.6881
     21 C17         7.5283   -4.6471    0.1930 C.3       1 <0>         0.0442
     22 C18         7.9343   -4.3937    1.6219 C.2       1 <0>         0.1472
     23 N2          8.3695   -5.2570    2.4925 N.2       1 <0>        -0.5127
     24 C19         8.7033   -4.9027    3.7510 C.ar      1 <0>         0.1207
     25 C20         9.1867   -5.6952    4.8161 C.ar      1 <0>         0.1067
     26 C21         9.4681   -5.1262    6.0353 C.ar      1 <0>         0.1092
     27 C22         9.2882   -3.7661    6.2582 C.ar      1 <0>        -0.1564
     28 C23         8.8162   -2.9643    5.2340 C.ar      1 <0>         0.1904
     29 C24         8.5319   -3.5255    4.0104 C.ar      1 <0>        -0.2251
     30 S1          7.9344   -2.9287    2.4503 S.3       1 <0>         0.1618
     31 F1          8.6361   -1.6404    5.4339 F         1 <0>        -0.1144
     32 F2          9.9288   -5.9055    7.0382 F         1 <0>        -0.1142
     33 F3          9.3731   -7.0210    4.6352 F         1 <0>        -0.1084
     34 H1          3.2505    1.8845    4.5084 H         1 <0>         0.1201
     35 H2          3.4004   -0.5720    4.4721 H         1 <0>         0.1213
     36 H3          3.5566   -1.7658    2.3253 H         1 <0>         0.1300
     37 H4          3.4221    1.9676    0.2484 H         1 <0>         0.1294
     38 H5          3.2654    3.1535    2.3995 H         1 <0>         0.1263
     39 H6          1.5308   -2.2500   -0.0939 H         1 <0>         0.1286
     40 H7          1.6312   -4.6992   -0.0483 H         1 <0>         0.1252
     41 H8          5.7940   -2.0235    0.0690 H         1 <0>         0.1226
     42 H9          6.0611   -7.1221    0.1746 H         1 <0>         0.1668
     43 H10         3.6908   -8.0927    0.5290 H         1 <0>         0.0910
     44 H11         2.3133   -6.9682    0.6086 H         1 <0>         0.0863
     45 H12         8.0994   -5.4864   -0.2037 H         1 <0>         0.1133
     46 H13         7.7274   -3.7574   -0.4045 H         1 <0>         0.1056
     47 H14         9.5149   -3.3383    7.2236 H         1 <0>         0.1717
@<TRIPOS>BOND
     1    1    6 ar
     2    1    2 ar
     3    1   34 1
     4    2    3 ar
     5    2   35 1
     6    3    4 ar
     7    3   36 1
     8    4    5 ar
     9    4    7 1
    10    5    6 ar
    11    5   37 1
    12    6   38 1
    13    7    8 1
    14    8   13 ar
    15    8    9 ar
    16    9   10 ar
    17    9   39 1
    18   10   11 ar
    19   10   40 1
    20   11   16 1
    21   11   12 ar
    22   12   13 ar
    23   12   14 1
    24   13   41 1
    25   14   15 2
    26   14   21 1
    27   15   16 1
    28   15   42 1
    29   16   17 1
    30   17   18 1
    31   17   43 1
    32   17   44 1
    33   18   19 2
    34   18   20 1
    35   21   22 1
    36   21   45 1
    37   21   46 1
    38   22   30 1
    39   22   23 2
    40   23   24 1
    41   24   29 ar
    42   24   25 ar
    43   25   26 ar
    44   25   33 1
    45   26   27 ar
    46   26   32 1
    47   27   28 ar
    48   27   47 1
    49   28   29 ar
    50   28   31 1
    51   29   30 1
@<TRIPOS>MOLECULE
CHEMBL240719
   48    49     0     0     0
SMALL
USER_CHARGES

@<TRIPOS>ATOM
      1 C1          1.5057   -0.3002    6.3824 C.3       1 <0>        -0.1180
      2 C2          1.8824    1.0583    6.9151 C.ar      1 <0>        -0.0667
      3 C3          2.5875    1.1651    8.0996 C.ar      1 <0>        -0.1206
      4 C4          2.9330    2.4110    8.5882 C.ar      1 <0>        -0.1138
      5 C5          2.5741    3.5504    7.8921 C.ar      1 <0>        -0.1253
      6 C6          1.8701    3.4435    6.7076 C.ar      1 <0>        -0.1015
      7 C7          1.5281    2.1971    6.2166 C.ar      1 <0>        -0.0724
      8 C8          0.7651    2.0804    4.9223 C.3       1 <0>        -0.1009
      9 C9         -0.7093    1.9764    5.2160 C.2       1 <0>         0.5124
     10 O1         -1.1019    1.9953    6.3635 O.2       1 <0>        -0.5001
     11 N1         -1.5917    1.8625    4.2037 N.am      1 <0>        -0.6773
     12 C10        -2.9496    1.6651    4.4780 C.ar      1 <0>         0.2006
     13 C11        -3.7150    0.8515    3.6530 C.ar      1 <0>        -0.1793
     14 C12        -5.0550    0.6587    3.9264 C.ar      1 <0>         0.0461
     15 C13        -5.6346    1.2748    5.0203 C.ar      1 <0>        -0.6951
     16 C14        -4.8752    2.0860    5.8435 C.ar      1 <0>         0.0457
     17 C15        -3.5333    2.2779    5.5791 C.ar      1 <0>        -0.1545
     18 C16        -5.5110    2.7559    7.0343 C.3       1 <0>        -0.1353
     19 S1         -7.3444    1.0263    5.3657 S.o2      1 <0>         2.6906
     20 O2         -7.7386   -0.1361    4.6498 O.2       1 <0>        -0.9639
     21 O3         -7.4952    1.1413    6.7740 O.2       1 <0>        -0.9692
     22 N2         -8.1689    2.2968    4.6961 N.pl3     1 <0>        -1.0897
     23 C17        -8.1839    2.4755    3.2421 C.3       1 <0>         0.0491
     24 C18        -9.2723    3.4479    2.8667 C.2       1 <0>         0.4961
     25 O4         -9.9707    3.9455    3.7334 O.co2     1 <0>        -0.6846
     26 O5         -9.4545    3.7370    1.6964 O.co2     1 <0>        -0.6913
     27 C19        -5.8865   -0.2236    3.0314 C.3       1 <0>        -0.1440
     28 H1          2.3010   -0.6701    5.7353 H         1 <0>         0.0716
     29 H2          1.3637   -0.9900    7.2143 H         1 <0>         0.0689
     30 H3          0.5798   -0.2229    5.8124 H         1 <0>         0.0629
     31 H4          2.8679    0.2751    8.6433 H         1 <0>         0.1216
     32 H5          3.4831    2.4945    9.5138 H         1 <0>         0.1213
     33 H6          2.8435    4.5239    8.2743 H         1 <0>         0.1218
     34 H7          1.5894    4.3336    6.1640 H         1 <0>         0.1207
     35 H8          0.9522    2.9621    4.3095 H         1 <0>         0.1070
     36 H9          1.0926    1.1894    4.3866 H         1 <0>         0.1080
     37 H10        -1.2855    1.9174    3.2849 H         1 <0>         0.4134
     38 H11        -3.2630    0.3703    2.7982 H         1 <0>         0.1325
     39 H12        -2.9396    2.9074    6.2253 H         1 <0>         0.1442
     40 H13        -5.5319    2.0610    7.8739 H         1 <0>         0.0967
     41 H14        -4.9318    3.6380    7.3071 H         1 <0>         0.0728
     42 H15        -6.5292    3.0531    6.7833 H         1 <0>         0.0794
     43 H16        -8.6419    2.9227    5.2666 H         1 <0>         0.4237
     44 H17        -7.2201    2.8646    2.9139 H         1 <0>         0.0602
     45 H18        -8.3717    1.5161    2.7601 H         1 <0>         0.0765
     46 H19        -5.9449   -1.2241    3.4601 H         1 <0>         0.0920
     47 H20        -6.8900    0.1924    2.9417 H         1 <0>         0.0983
     48 H21        -5.4260   -0.2775    2.0449 H         1 <0>         0.0695
@<TRIPOS>BOND
     1    1    2 1
     2    1   28 1
     3    1   29 1
     4    1   30 1
     5    2    7 ar
     6    2    3 ar
     7    3    4 ar
     8    3   31 1
     9    4    5 ar
    10    4   32 1
    11    5    6 ar
    12    5   33 1
    13    6    7 ar
    14    6   34 1
    15    7    8 1
    16    8    9 1
    17    8   35 1
    18    8   36 1
    19    9   10 2
    20    9   11 am
    21   11   12 1
    22   11   37 1
    23   12   17 ar
    24   12   13 ar
    25   13   14 ar
    26   13   38 1
    27   14   15 ar
    28   14   27 1
    29   15   16 ar
    30   15   19 1
    31   16   17 ar
    32   16   18 1
    33   17   39 1
    34   18   40 1
    35   18   41 1
    36   18   42 1
    37   19   20 2
    38   19   21 2
    39   19   22 1
    40   22   23 1
    41   22   43 1
    42   23   24 1
    43   23   44 1
    44   23   45 1
    45   24   25 2
    46   24   26 1
    47   27   46 1
    48   27   47 1
    49   27   48 1
@<TRIPOS>MOLECULE
CHEMBL173813
   12    11     0     0     0
SMALL
USER_CHARGES

@<TRIPOS>ATOM
      1 C1         -0.0187    1.5258    0.0104 C.3       1 <0>         0.0521
      2 C2          0.0021   -0.0041    0.0020 C.3       1 <0>         0.0386
      3 C3         -1.4075   -0.5249   -0.1112 C.2       1 <0>         0.3165
      4 O1         -1.8621   -1.2302    0.7573 O.2       1 <0>        -0.4384
      5 O2          0.5895   -0.4792    1.2150 O.3       1 <0>        -0.5373
      6 O3          1.3220    2.0204    0.0003 O.3       1 <0>        -0.5610
      7 H1         -0.5459    1.8868   -0.8726 H         1 <0>         0.0646
      8 H2         -0.5289    1.8773    0.9072 H         1 <0>         0.0536
      9 H3          0.5883   -0.3548   -0.8473 H         1 <0>         0.1381
     10 H4         -2.0111   -0.2675   -0.9689 H         1 <0>         0.1082
     11 H5          0.1188   -0.2046    2.0138 H         1 <0>         0.3799
     12 H6          1.3852    2.9853    0.0049 H         1 <0>         0.3851
@<TRIPOS>BOND
     1    1    2 1
     2    1    6 1
     3    1    7 1
     4    1    8 1
     5    2    3 1
     6    2    5 1
     7    2    9 1
     8    3    4 2
     9    3   10 1
    10    5   11 1
    11    6   12 1
@<TRIPOS>MOLECULE
CHEMBL173813__1
   12    11     0     0     0
SMALL
USER_CHARGES

@<TRIPOS>ATOM
      1 C1         -0.0187    1.5258    0.0104 C.3       1 <0>         0.0521
      2 C2          0.0021   -0.0041    0.0020 C.3       1 <0>         0.0386
      3 C3         -1.4051   -0.5263    0.1365 C.2       1 <0>         0.3166
      4 O1         -1.8763   -1.2222   -0.7306 O.2       1 <0>        -0.4384
      5 O2          0.5662   -0.4660   -1.2270 O.3       1 <0>        -0.5373
      6 O3          1.3220    2.0204    0.0003 O.3       1 <0>        -0.5610
      7 H1         -0.5459    1.8868   -0.8726 H         1 <0>         0.0536
      8 H2         -0.5289    1.8773    0.9072 H         1 <0>         0.0646
      9 H3          0.6044   -0.3639    0.8362 H         1 <0>         0.1381
     10 H4         -1.9922   -0.2781    1.0084 H         1 <0>         0.1082
     11 H5          0.0804   -0.1829   -2.0137 H         1 <0>         0.3799
     12 H6          1.3852    2.9853    0.0049 H         1 <0>         0.3851
@<TRIPOS>BOND
     1    1    2 1
     2    1    6 1
     3    1    7 1
     4    1    8 1
     5    2    3 1
     6    2    5 1
     7    2    9 1
     8    3    4 2
     9    3   10 1
    10    5   11 1
    11    6   12 1
@<TRIPOS>MOLECULE
CHEMBL44941
   42    44     0     0     0
SMALL
USER_CHARGES

@<TRIPOS>ATOM
      1 C1         -0.0167    1.3781    0.0096 C.ar      1 <0>        -0.1189
      2 C2          1.1709    2.0855    0.0021 C.ar      1 <0>        -0.1291
      3 C3          2.3773    1.4107   -0.0130 C.ar      1 <0>        -0.0894
      4 C4          2.3960    0.0285   -0.0201 C.ar      1 <0>        -0.1018
      5 C5          1.2084   -0.6789   -0.0117 C.ar      1 <0>        -0.1063
      6 C6          0.0021   -0.0041    0.0020 C.ar      1 <0>        -0.1294
      7 C7          3.7112   -0.7071   -0.0376 C.3       1 <0>         0.1377
      8 N1          4.1518   -0.9524    1.3379 N.pl3     1 <0>        -0.4774
      9 C8          3.7528   -2.1823    2.0266 C.3       1 <0>         0.0111
     10 C9          4.7800   -3.2556    1.7736 C.2       1 <0>         0.4827
     11 O1          5.7550   -3.0154    1.0822 O.co2     1 <0>        -0.6715
     12 O2          4.6360   -4.3641    2.2605 O.co2     1 <0>        -0.6846
     13 C10         4.9243   -0.0466    1.9697 C.2       1 <0>         0.3008
     14 S1          5.3598    1.2958    1.2180 S.2       1 <0>        -0.5307
     15 C11         5.3776   -0.2989    3.3846 C.3       1 <0>        -0.1020
     16 C12         6.2352    0.8747    3.8623 C.3       1 <0>        -0.0233
     17 C13         6.6884    0.6224    5.2772 C.2       1 <0>         0.1373
     18 N2          7.7732    0.0225    5.6723 N.2       1 <0>        -0.5043
     19 C14         8.0685   -0.1419    6.9786 C.ar      1 <0>         0.1182
     20 C15         9.1857   -0.7604    7.5829 C.ar      1 <0>         0.1122
     21 C16         9.2922   -0.8209    8.9520 C.ar      1 <0>         0.1087
     22 C17         8.3139   -0.2810    9.7787 C.ar      1 <0>        -0.1521
     23 C18         7.2080    0.3311    9.2159 C.ar      1 <0>         0.1879
     24 C19         7.0933    0.3962    7.8464 C.ar      1 <0>        -0.2206
     25 S2          5.9094    1.0593    6.7037 S.3       1 <0>         0.1517
     26 F1          6.2483    0.8613   10.0052 F         1 <0>        -0.1151
     27 F2         10.3702   -1.4182    9.5057 F         1 <0>        -0.1133
     28 F3         10.1557   -1.2962    6.8101 F         1 <0>        -0.1054
     29 H1         -0.9591    1.9053    0.0259 H         1 <0>         0.1169
     30 H2          1.1563    3.1654    0.0076 H         1 <0>         0.1199
     31 H3          3.3051    1.9634   -0.0196 H         1 <0>         0.1479
     32 H4          1.2231   -1.7588   -0.0176 H         1 <0>         0.1195
     33 H5         -0.9258   -0.5567    0.0082 H         1 <0>         0.1186
     34 H6          3.5884   -1.6586   -0.5549 H         1 <0>         0.0924
     35 H7          4.4573   -0.1052   -0.5563 H         1 <0>         0.1186
     36 H8          3.6819   -1.9924    3.0976 H         1 <0>         0.0847
     37 H9          2.7838   -2.5110    1.6510 H         1 <0>         0.0884
     38 H10         4.5069   -0.4000    4.0325 H         1 <0>         0.0938
     39 H11         5.9651   -1.2163    3.4198 H         1 <0>         0.1107
     40 H12         7.1059    0.9758    3.2145 H         1 <0>         0.1262
     41 H13         5.6476    1.7921    3.8272 H         1 <0>         0.1167
     42 H14         8.4160   -0.3392   10.8523 H         1 <0>         0.1725
@<TRIPOS>BOND
     1    1    6 ar
     2    1    2 ar
     3    1   29 1
     4    2    3 ar
     5    2   30 1
     6    3    4 ar
     7    3   31 1
     8    4    5 ar
     9    4    7 1
    10    5    6 ar
    11    5   32 1
    12    6   33 1
    13    7    8 1
    14    7   34 1
    15    7   35 1
    16    8    9 1
    17    8   13 1
    18    9   10 1
    19    9   36 1
    20    9   37 1
    21   10   11 2
    22   10   12 1
    23   13   14 2
    24   13   15 1
    25   15   16 1
    26   15   38 1
    27   15   39 1
    28   16   17 1
    29   16   40 1
    30   16   41 1
    31   17   25 1
    32   17   18 2
    33   18   19 1
    34   19   24 ar
    35   19   20 ar
    36   20   21 ar
    37   20   28 1
    38   21   22 ar
    39   21   27 1
    40   22   23 ar
    41   22   42 1
    42   23   24 ar
    43   23   26 1
    44   24   25 1
@<TRIPOS>MOLECULE
CHEMBL348759
   30    32     0     0     0
SMALL
USER_CHARGES

@<TRIPOS>ATOM
      1 C1          0.4047    1.4771   -0.0482 C.3       1 <0>        -0.0947
      2 C2          0.2036   -0.0163   -0.0258 C.2       1 <0>        -0.2166
      3 C3         -0.0973   -0.6634   -1.1750 C.2       1 <0>         0.0607
      4 C4         -0.2981   -2.1095   -1.1860 C.ar      1 <0>        -0.0534
      5 C5         -0.6094   -2.7884   -2.3654 C.ar      1 <0>        -0.0625
      6 C6         -0.7968   -4.1615   -2.3531 C.ar      1 <0>        -0.1235
      7 C7         -0.6825   -4.8886   -1.1894 C.ar      1 <0>        -0.0903
      8 C8         -0.3702   -4.2395    0.0177 C.ar      1 <0>        -0.0686
      9 C9         -0.1765   -2.8402    0.0174 C.ar      1 <0>        -0.0115
     10 C10         0.1379   -2.1734    1.2202 C.ar      1 <0>        -0.1505
     11 C11         0.2550   -2.9053    2.3975 C.ar      1 <0>        -0.0384
     12 C12         0.0638   -4.2797    2.3879 C.ar      1 <0>        -0.1419
     13 C13        -0.2453   -4.9484    1.2255 C.ar      1 <0>        -0.0680
     14 C14         0.3384   -0.7169    1.1947 C.2       1 <0>         0.4322
     15 O1          0.6151   -0.1168    2.2201 O.2       1 <0>        -0.4785
     16 C15        -0.2271    0.1168   -2.4577 C.3       1 <0>        -0.1736
     17 C16         1.1344    0.2913   -3.0796 C.2       1 <0>         0.5033
     18 O2          2.1190   -0.1748   -2.5319 O.co2     1 <0>        -0.6810
     19 O3          1.2514    0.8985   -4.1304 O.co2     1 <0>        -0.6954
     20 H1          1.4297    1.7013   -0.3435 H         1 <0>         0.0722
     21 H2         -0.2856    1.9260   -0.7623 H         1 <0>         0.0643
     22 H3          0.2156    1.8841    0.9452 H         1 <0>         0.0620
     23 H4         -0.7050   -2.2411   -3.2915 H         1 <0>         0.1367
     24 H5         -1.0375   -4.6712   -3.2743 H         1 <0>         0.1294
     25 H6         -0.8333   -5.9580   -1.2040 H         1 <0>         0.1301
     26 H7          0.4958   -2.4020    3.3223 H         1 <0>         0.1363
     27 H8          0.1583   -4.8346    3.3096 H         1 <0>         0.1296
     28 H9         -0.3910   -6.0184    1.2408 H         1 <0>         0.1315
     29 H10        -0.8752   -0.4236   -3.1477 H         1 <0>         0.0742
     30 H11        -0.6578    1.0954   -2.2457 H         1 <0>         0.0860
@<TRIPOS>BOND
     1    1    2 1
     2    1   20 1
     3    1   21 1
     4    1   22 1
     5    2   14 1
     6    2    3 2
     7    3    4 1
     8    3   16 1
     9    4    9 ar
    10    4    5 ar
    11    5    6 ar
    12    5   23 1
    13    6    7 ar
    14    6   24 1
    15    7    8 ar
    16    7   25 1
    17    8   13 ar
    18    8    9 ar
    19    9   10 ar
    20   10   11 ar
    21   10   14 1
    22   11   12 ar
    23   11   26 1
    24   12   13 ar
    25   12   27 1
    26   13   28 1
    27   14   15 2
    28   16   17 1
    29   16   29 1
    30   16   30 1
    31   17   18 2
    32   17   19 1
@<TRIPOS>MOLECULE
CHEMBL6828
   32    33     0     0     0
SMALL
USER_CHARGES

@<TRIPOS>ATOM
      1 C1         -0.0187    1.5258    0.0104 C.3       1 <0>        -0.1468
      2 C2          0.0021   -0.0041    0.0020 C.3       1 <0>         0.0638
      3 O1          0.6709   -0.4649   -1.1737 O.3       1 <0>        -0.3708
      4 C3          0.7759   -1.7997   -1.3349 C.2       1 <0>         0.5367
      5 O2          0.3120   -2.5512   -0.4995 O.2       1 <0>        -0.5359
      6 C4          1.4496   -2.3445   -2.5176 C.2       1 <0>        -0.4678
      7 C5          1.6245   -3.6518   -2.8151 C.2       1 <0>         0.2835
      8 C6          2.3519   -3.7653   -4.0977 C.2       1 <0>         0.5135
      9 O3          2.6606   -4.8106   -4.6343 O.2       1 <0>        -0.5181
     10 N1          2.6208   -2.5394   -4.5826 N.am      1 <0>        -0.6145
     11 C7          2.0763   -1.5532   -3.6418 C.3       1 <0>         0.1950
     12 C8          3.3269   -2.2417   -5.8312 C.3       1 <0>         0.1850
     13 C9          2.3328   -2.1449   -6.9597 C.ar      1 <0>         0.1125
     14 C10         1.8407   -0.9082   -7.3324 C.ar      1 <0>        -0.1593
     15 C11         0.9267   -0.8302   -8.3718 C.ar      1 <0>        -0.0794
     16 C12         0.5401   -2.0043   -9.0002 C.ar      1 <0>        -0.1779
     17 C13         1.0749   -3.2046   -8.5726 C.ar      1 <0>         0.0988
     18 N2          1.9467   -3.2404   -7.5836 N.ar      1 <0>        -0.4599
     19 O4          1.2017   -4.6910   -2.0593 O.3       1 <0>        -0.6131
     20 H1          1.0039    1.9031    0.0027 H         1 <0>         0.0615
     21 H2         -0.5459    1.8868   -0.8726 H         1 <0>         0.0610
     22 H3         -0.5289    1.8773    0.9072 H         1 <0>         0.0685
     23 H4          0.5293   -0.3651    0.8851 H         1 <0>         0.0558
     24 H5         -1.0205   -0.3814    0.0098 H         1 <0>         0.0552
     25 H6          1.3219   -0.9395   -4.1339 H         1 <0>         0.0523
     26 H7          2.8783   -0.9242   -3.2555 H         1 <0>         0.0574
     27 H8          3.8571   -1.2945   -5.7318 H         1 <0>         0.0940
     28 H9          4.0411   -3.0373   -6.0433 H         1 <0>         0.0962
     29 H10         2.1639   -0.0140   -6.8202 H         1 <0>         0.1353
     30 H11         0.5250    0.1223   -8.6844 H         1 <0>         0.1324
     31 H12        -0.1703   -1.9810   -9.8133 H         1 <0>         0.1317
     32 H13         0.7790   -4.1234   -9.0569 H         1 <0>         0.1535
@<TRIPOS>BOND
     1    1    2 1
     2    1   20 1
     3    1   21 1
     4    1   22 1
     5    2    3 1
     6    2   23 1
     7    2   24 1
     8    3    4 1
     9    4    5 2
    10    4    6 1
    11    6   11 1
    12    6    7 2
    13    7    8 1
    14    7   19 1
    15    8    9 2
    16    8   10 am
    17   10   11 1
    18   10   12 1
    19   11   25 1
    20   11   26 1
    21   12   13 1
    22   12   27 1
    23   12   28 1
    24   13   18 ar
    25   13   14 ar
    26   14   15 ar
    27   14   29 1
    28   15   16 ar
    29   15   30 1
    30   16   17 ar
    31   16   31 1
    32   17   18 ar
    33   17   32 1
@<TRIPOS>MOLECULE
CHEMBL363387
   36    39     0     0     0
SMALL
USER_CHARGES

@<TRIPOS>ATOM
      1 C1         -0.0165    1.3620    0.0095 C.ar      1 <0>        -0.1499
      2 C2          1.1697    2.0834    0.0021 C.ar      1 <0>        -0.1131
      3 C3          2.3856    1.4362   -0.0134 C.ar      1 <0>        -0.1107
      4 C4          2.4281    0.0456   -0.0212 C.ar      1 <0>         0.1155
      5 C5          1.2234   -0.6807   -0.0132 C.ar      1 <0>        -0.0968
      6 C6          0.0021   -0.0041    0.0020 C.ar      1 <0>        -0.0818
      7 C7          1.6036   -2.0953   -0.0245 C.2       1 <0>        -0.2182
      8 C8          2.9451   -2.1410   -0.0380 C.2       1 <0>         0.1085
      9 N1          3.4551   -0.8713   -0.0363 N.pl3     1 <0>        -0.4361
     10 C9          4.8815   -0.5372   -0.0482 C.3       1 <0>         0.0298
     11 C10         5.3560   -0.3100    1.3640 C.2       1 <0>         0.4817
     12 O1          4.5751   -0.4172    2.2942 O.co2     1 <0>        -0.6707
     13 O2          6.5208   -0.0190    1.5763 O.co2     1 <0>        -0.6902
     14 C11         0.6664   -3.2754   -0.0210 C.3       1 <0>         0.0460
     15 C12         0.2425   -3.5844   -1.4338 C.2       1 <0>         0.1508
     16 N2          0.8158   -4.3885   -2.2808 N.2       1 <0>        -0.5148
     17 C13         0.3351   -4.5817   -3.5267 C.ar      1 <0>         0.1215
     18 C14         0.8211   -5.4055   -4.5665 C.ar      1 <0>         0.1063
     19 C15         0.1712   -5.4557   -5.7767 C.ar      1 <0>         0.1089
     20 C16        -0.9741   -4.7050   -6.0148 C.ar      1 <0>        -0.1570
     21 C17        -1.4740   -3.8888   -5.0155 C.ar      1 <0>         0.1903
     22 C18        -0.8297   -3.8325   -3.8012 C.ar      1 <0>        -0.2264
     23 S1         -1.0837   -2.9729   -2.2703 S.3       1 <0>         0.1610
     24 F1         -2.5865   -3.1531   -5.2306 F         1 <0>        -0.1151
     25 F2          0.6561   -6.2509   -6.7553 F         1 <0>        -0.1145
     26 F3          1.9322   -6.1485   -4.3702 F         1 <0>        -0.1086
     27 H1         -0.9613    1.8849    0.0259 H         1 <0>         0.1155
     28 H2          1.1388    3.1630    0.0081 H         1 <0>         0.1184
     29 H3          3.3028    2.0064   -0.0198 H         1 <0>         0.1150
     30 H4         -0.9246   -0.5587    0.0082 H         1 <0>         0.1117
     31 H5          3.5346   -3.0459   -0.0490 H         1 <0>         0.1628
     32 H6          5.4433   -1.3588   -0.4925 H         1 <0>         0.0888
     33 H7          5.0376    0.3686   -0.6341 H         1 <0>         0.0846
     34 H8          1.1742   -4.1414    0.4036 H         1 <0>         0.1109
     35 H9         -0.2127   -3.0396    0.5787 H         1 <0>         0.1046
     36 H10        -1.4700   -4.7582   -6.9728 H         1 <0>         0.1714
@<TRIPOS>BOND
     1    1    6 ar
     2    1    2 ar
     3    1   27 1
     4    2    3 ar
     5    2   28 1
     6    3    4 ar
     7    3   29 1
     8    4    9 1
     9    4    5 ar
    10    5    6 ar
    11    5    7 1
    12    6   30 1
    13    7    8 2
    14    7   14 1
    15    8    9 1
    16    8   31 1
    17    9   10 1
    18   10   11 1
    19   10   32 1
    20   10   33 1
    21   11   12 2
    22   11   13 1
    23   14   15 1
    24   14   34 1
    25   14   35 1
    26   15   23 1
    27   15   16 2
    28   16   17 1
    29   17   22 ar
    30   17   18 ar
    31   18   19 ar
    32   18   26 1
    33   19   20 ar
    34   19   25 1
    35   20   21 ar
    36   20   36 1
    37   21   22 ar
    38   21   24 1
    39   22   23 1
@<TRIPOS>MOLECULE
CHEMBL7679
   35    37     0     0     0
SMALL
USER_CHARGES

@<TRIPOS>ATOM
      1 C1         -0.0165    1.3627    0.0095 C.ar      1 <0>        -0.0929
      2 C2          1.1654    2.0924    0.0022 C.ar      1 <0>        -0.1289
      3 C3          2.3861    1.4540   -0.0134 C.ar      1 <0>        -0.0568
      4 C4          2.4294    0.0605   -0.0213 C.ar      1 <0>        -0.1348
      5 C5          1.2244   -0.6786   -0.0133 C.ar      1 <0>        -0.0423
      6 C6          0.0021   -0.0041    0.0020 C.ar      1 <0>        -0.1011
      7 C7          1.3000   -2.1396   -0.0224 C.2       1 <0>         0.1202
      8 N1          2.4575   -2.7306   -0.0371 N.2       1 <0>        -0.1227
      9 N2          3.6626   -2.0276   -0.0452 N.am      1 <0>        -0.4387
     10 C8          3.6977   -0.6787   -0.0384 C.2       1 <0>         0.5198
     11 O1          4.7616   -0.0856   -0.0461 O.2       1 <0>        -0.5442
     12 C9          4.9232   -2.7737   -0.0618 C.3       1 <0>         0.1765
     13 C10         5.3696   -3.0372    1.3533 C.ar      1 <0>        -0.1367
     14 C11         6.3386   -2.2394    1.9323 C.ar      1 <0>        -0.0601
     15 C12         6.7481   -2.4801    3.2301 C.ar      1 <0>        -0.1184
     16 C13         6.1890   -3.5202    3.9512 C.ar      1 <0>        -0.0564
     17 C14         5.2199   -4.3196    3.3736 C.ar      1 <0>        -0.1435
     18 C15         4.8051   -4.0748    2.0754 C.ar      1 <0>         0.1436
     19 F1          3.8543   -4.8517    1.5118 F         1 <0>        -0.0845
     20 Br1         6.7507   -3.8489    5.7267 Br        1 <0>        -0.0474
     21 C16         0.0356   -2.9595   -0.0143 C.3       1 <0>        -0.1331
     22 C17         0.3870   -4.4249   -0.0262 C.2       1 <0>         0.4871
     23 O2          1.5559   -4.7714   -0.0401 O.co2     1 <0>        -0.6424
     24 O3         -0.4975   -5.2640   -0.0221 O.co2     1 <0>        -0.7075
     25 H1         -0.9631    1.8823    0.0259 H         1 <0>         0.1295
     26 H2          1.1269    3.1717    0.0083 H         1 <0>         0.1292
     27 H3          3.3010    2.0277   -0.0197 H         1 <0>         0.1369
     28 H4         -0.9242   -0.5594    0.0075 H         1 <0>         0.1398
     29 H5          4.7775   -3.7219   -0.5793 H         1 <0>         0.1108
     30 H6          5.6841   -2.1901   -0.5800 H         1 <0>         0.1048
     31 H7          6.7761   -1.4277    1.3701 H         1 <0>         0.1442
     32 H8          7.5053   -1.8562    3.6816 H         1 <0>         0.1367
     33 H9          4.7839   -5.1320    3.9360 H         1 <0>         0.1450
     34 H10        -0.5398   -2.7311    0.8829 H         1 <0>         0.0838
     35 H11        -0.5578   -2.7210   -0.8970 H         1 <0>         0.0846
@<TRIPOS>BOND
     1    1    6 ar
     2    1    2 ar
     3    1   25 1
     4    2    3 ar
     5    2   26 1
     6    3    4 ar
     7    3   27 1
     8    4   10 1
     9    4    5 ar
    10    5    6 ar
    11    5    7 1
    12    6   28 1
    13    7    8 2
    14    7   21 1
    15    8    9 1
    16    9   10 am
    17    9   12 1
    18   10   11 2
    19   12   13 1
    20   12   29 1
    21   12   30 1
    22   13   18 ar
    23   13   14 ar
    24   14   15 ar
    25   14   31 1
    26   15   16 ar
    27   15   32 1
    28   16   17 ar
    29   16   20 1
    30   17   18 ar
    31   17   33 1
    32   18   19 1
    33   21   22 1
    34   21   34 1
    35   21   35 1
    36   22   23 2
    37   22   24 1
@<TRIPOS>MOLECULE
CHEMBL7537
   33    34     0     0     0
SMALL
USER_CHARGES

@<TRIPOS>ATOM
      1 C1         -0.4885    1.4016    0.0147 C.3       1 <0>        -0.1083
      2 C2         -0.0417   -0.0375   -0.0089 C.2       1 <0>        -0.1178
      3 C3          0.2527   -0.6740    1.1494 C.2       1 <0>        -0.0524
      4 C4          0.2907    0.0777    2.4123 C.ar      1 <0>        -0.0551
      5 C5         -0.2235   -0.4889    3.5839 C.ar      1 <0>        -0.0971
      6 C6         -0.1841    0.2227    4.7640 C.ar      1 <0>        -0.1212
      7 C7          0.3621    1.4943    4.7920 C.ar      1 <0>        -0.1196
      8 C8          0.8729    2.0620    3.6374 C.ar      1 <0>        -0.1252
      9 C9          0.8464    1.3615    2.4503 C.ar      1 <0>        -0.1085
     10 C10         0.0697   -0.7205   -1.2361 C.2       1 <0>         0.0647
     11 C11        -0.6267   -1.8761   -1.4394 C.2       1 <0>        -0.2161
     12 C12        -1.6485   -2.5193   -0.5924 C.2       1 <0>         0.5408
     13 O1         -1.9985   -2.0330    0.4674 O.2       1 <0>        -0.4460
     14 N1         -2.1657   -3.6503   -1.0418 N.am      1 <0>        -0.4840
     15 C13        -1.7755   -4.1854   -2.2166 C.2       1 <0>         0.3117
     16 S1         -2.3213   -5.6265   -2.9625 S.2       1 <0>        -0.3606
     17 S2         -0.5571   -3.0224   -2.8093 S.3       1 <0>         0.0256
     18 C14        -3.1852   -4.3377   -0.2453 C.3       1 <0>         0.0099
     19 C15        -4.5517   -3.8419   -0.6427 C.2       1 <0>         0.4994
     20 O2         -4.6637   -2.9931   -1.5107 O.co2     1 <0>        -0.6798
     21 O3         -5.5454   -4.2897   -0.0961 O.co2     1 <0>        -0.6787
     22 H1          0.3844    2.0536   -0.0174 H         1 <0>         0.0711
     23 H2         -1.1219    1.5996   -0.8499 H         1 <0>         0.0665
     24 H3         -1.0511    1.5924    0.9286 H         1 <0>         0.0757
     25 H4          0.4596   -1.7340    1.1455 H         1 <0>         0.1204
     26 H5         -0.6503   -1.4807    3.5637 H         1 <0>         0.1257
     27 H6         -0.5808   -0.2129    5.6691 H         1 <0>         0.1226
     28 H7          0.3897    2.0467    5.7196 H         1 <0>         0.1197
     29 H8          1.2970    3.0548    3.6675 H         1 <0>         0.1217
     30 H9          1.2496    1.8038    1.5514 H         1 <0>         0.1284
     31 H10         0.7063   -0.3294   -2.0160 H         1 <0>         0.1552
     32 H11        -3.1223   -5.4113   -0.4231 H         1 <0>         0.1106
     33 H12        -3.0182   -4.1341    0.8124 H         1 <0>         0.1004
@<TRIPOS>BOND
     1    1    2 1
     2    1   22 1
     3    1   23 1
     4    1   24 1
     5    2    3 2
     6    2   10 1
     7    3    4 1
     8    3   25 1
     9    4    9 ar
    10    4    5 ar
    11    5    6 ar
    12    5   26 1
    13    6    7 ar
    14    6   27 1
    15    7    8 ar
    16    7   28 1
    17    8    9 ar
    18    8   29 1
    19    9   30 1
    20   10   11 2
    21   10   31 1
    22   11   17 1
    23   11   12 1
    24   12   13 2
    25   12   14 am
    26   14   15 1
    27   14   18 1
    28   15   16 2
    29   15   17 1
    30   18   19 1
    31   18   32 1
    32   18   33 1
    33   19   20 2
    34   19   21 1
@<TRIPOS>MOLECULE
CHEMBL418832
   29    32     0     0     0
SMALL
USER_CHARGES

@<TRIPOS>ATOM
      1 C1         -0.0167    1.3810    0.0096 C.ar      1 <0>        -0.1575
      2 C2          1.1658    2.0906    0.0022 C.ar      1 <0>        -0.0671
      3 C3          2.3865    1.4147   -0.0137 C.ar      1 <0>        -0.0635
      4 C4          2.3972    0.0196   -0.0229 C.ar      1 <0>        -0.0160
      5 C5          1.2108   -0.6819   -0.0139 C.ar      1 <0>        -0.1298
      6 C6          0.0021   -0.0041    0.0020 C.ar      1 <0>         0.1072
      7 F1         -1.1590   -0.6948    0.0110 F         1 <0>        -0.1375
      8 C7          3.8352   -0.4097   -0.0424 C.3       1 <0>        -0.0822
      9 C8          4.1684   -1.3064    1.1587 C.3       1 <0>        -0.1547
     10 C9          4.6281   -2.5926    0.5008 C.2       1 <0>         0.4724
     11 O1          5.0305   -3.6939    1.1527 O.3       1 <0>        -0.6383
     12 N1          4.5722   -2.4649   -0.7928 N.2       1 <0>        -0.6893
     13 C10         4.1411   -1.2811   -1.2327 C.2       1 <0>         0.5374
     14 O2          4.0161   -0.9603   -2.3970 O.2       1 <0>        -0.5231
     15 C11         4.6664    0.8399   -0.0397 C.ar      1 <0>        -0.0160
     16 C12         3.7828    1.9194   -0.0231 C.ar      1 <0>        -0.0634
     17 C13         4.2892    3.2197   -0.0176 C.ar      1 <0>        -0.0671
     18 C14         5.6521    3.4302   -0.0271 C.ar      1 <0>        -0.1575
     19 C15         6.5232    2.3532   -0.0432 C.ar      1 <0>         0.1071
     20 C16         6.0271    1.0592   -0.0504 C.ar      1 <0>        -0.1298
     21 F2          7.8575    2.5645   -0.0532 F         1 <0>        -0.1375
     22 H1         -0.9600    1.9067    0.0260 H         1 <0>         0.1383
     23 H2          1.1471    3.1704    0.0082 H         1 <0>         0.1332
     24 H3          1.2231   -1.7618   -0.0203 H         1 <0>         0.1383
     25 H4          4.9694   -0.8703    1.7556 H         1 <0>         0.0933
     26 H5          3.2818   -1.4802    1.7685 H         1 <0>         0.0933
     27 H6          3.6133    4.0619   -0.0062 H         1 <0>         0.1333
     28 H7          6.0414    4.4376   -0.0223 H         1 <0>         0.1383
     29 H8          6.7081    0.2210   -0.0625 H         1 <0>         0.1383
@<TRIPOS>BOND
     1    1    6 ar
     2    1    2 ar
     3    1   22 1
     4    2    3 ar
     5    2   23 1
     6    3   16 1
     7    3    4 ar
     8    4    5 ar
     9    4    8 1
    10    5    6 ar
    11    5   24 1
    12    6    7 1
    13    8   13 1
    14    8    9 1
    15    8   15 1
    16    9   10 1
    17    9   25 1
    18    9   26 1
    19   10   11 1
    20   10   12 2
    21   12   13 1
    22   13   14 2
    23   15   20 ar
    24   15   16 ar
    25   16   17 ar
    26   17   18 ar
    27   17   27 1
    28   18   19 ar
    29   18   28 1
    30   19   20 ar
    31   19   21 1
    32   20   29 1
@<TRIPOS>MOLECULE
CHEMBL436
   37    38     0     0     0
SMALL
USER_CHARGES

@<TRIPOS>ATOM
      1 C1          2.4337   -0.6161   -1.2464 C.3       1 <0>         0.0561
      2 N1          1.1760   -1.0005   -0.6009 N.pl3     1 <0>        -0.4647
      3 C2          1.1956   -1.8358    0.6025 C.3       1 <0>         0.0136
      4 C3          1.2610   -0.9556    1.8240 C.2       1 <0>         0.5006
      5 O1          1.2886    0.2571    1.7007 O.co2     1 <0>        -0.6791
      6 O2          1.2863   -1.4562    2.9354 O.co2     1 <0>        -0.6856
      7 C4          0.0008   -0.5856   -1.1141 C.2       1 <0>         0.3683
      8 S1         -1.4605   -0.9226   -0.2883 S.2       1 <0>        -0.5802
      9 C5         -0.0262    0.1575   -2.3849 C.ar      1 <0>        -0.0334
     10 C6          0.1653    1.5335   -2.4062 C.ar      1 <0>        -0.0908
     11 C7          0.1393    2.2316   -3.6056 C.ar      1 <0>        -0.0750
     12 C8         -0.0720    1.6062   -4.7961 C.ar      1 <0>        -0.1240
     13 C9         -0.2731    0.2166   -4.8500 C.ar      1 <0>         0.0285
     14 C10        -0.2489   -0.5377   -3.6510 C.ar      1 <0>        -0.0605
     15 C11        -0.4428   -1.9239   -3.6991 C.ar      1 <0>        -0.0158
     16 C12        -0.6474   -2.5353   -4.8989 C.ar      1 <0>        -0.2023
     17 C13        -0.6665   -1.7970   -6.0856 C.ar      1 <0>         0.1946
     18 C14        -0.4927   -0.4420   -6.0714 C.ar      1 <0>        -0.2313
     19 C15        -0.5163    0.3389   -7.3601 C.3       1 <0>         0.5200
     20 F1          0.6708    1.0685   -7.4851 F         1 <0>        -0.1789
     21 F2         -0.6365   -0.5444   -8.4384 F         1 <0>        -0.1637
     22 F3         -1.6050    1.2174   -7.3533 F         1 <0>        -0.1779
     23 O3         -0.8728   -2.4340   -7.2681 O.3       1 <0>        -0.2991
     24 C16        -1.0609   -3.8497   -7.2182 C.3       1 <0>         0.0201
     25 H1          2.7474   -1.4053   -1.9297 H         1 <0>         0.0700
     26 H2          2.2883    0.3098   -1.8029 H         1 <0>         0.0820
     27 H3          3.2011   -0.4668   -0.4869 H         1 <0>         0.0912
     28 H4          0.2902   -2.4415    0.6391 H         1 <0>         0.1126
     29 H5          2.0685   -2.4882    0.5776 H         1 <0>         0.0861
     30 H6          0.3354    2.0646   -1.4813 H         1 <0>         0.1406
     31 H7          0.2906    3.3009   -3.5941 H         1 <0>         0.1360
     32 H8         -0.0855    2.1840   -5.7084 H         1 <0>         0.1314
     33 H9         -0.4298   -2.5054   -2.7891 H         1 <0>         0.1394
     34 H10        -0.7963   -3.6044   -4.9338 H         1 <0>         0.1441
     35 H11        -1.2149   -4.2316   -8.2275 H         1 <0>         0.1051
     36 H12        -0.1782   -4.3184   -6.7832 H         1 <0>         0.0604
     37 H13        -1.9330   -4.0791   -6.6060 H         1 <0>         0.0615
@<TRIPOS>BOND
     1    1    2 1
     2    1   25 1
     3    1   26 1
     4    1   27 1
     5    2    3 1
     6    2    7 1
     7    3    4 1
     8    3   28 1
     9    3   29 1
    10    4    5 2
    11    4    6 1
    12    7    8 2
    13    7    9 1
    14    9   14 ar
    15    9   10 ar
    16   10   11 ar
    17   10   30 1
    18   11   12 ar
    19   11   31 1
    20   12   13 ar
    21   12   32 1
    22   13   18 ar
    23   13   14 ar
    24   14   15 ar
    25   15   16 ar
    26   15   33 1
    27   16   17 ar
    28   16   34 1
    29   17   18 ar
    30   17   23 1
    31   18   19 1
    32   19   20 1
    33   19   21 1
    34   19   22 1
    35   23   24 1
    36   24   35 1
    37   24   36 1
    38   24   37 1
@<TRIPOS>MOLECULE
CHEMBL355148
   30    31     0     0     0
SMALL
USER_CHARGES

@<TRIPOS>ATOM
      1 C1         -0.0167    1.3780    0.0096 C.ar      1 <0>        -0.0332
      2 C2          1.1708    2.0857    0.0021 C.ar      1 <0>        -0.1148
      3 C3          2.3780    1.4104   -0.0131 C.ar      1 <0>         0.0243
      4 C4          2.3961    0.0268   -0.0207 C.ar      1 <0>        -0.0478
      5 C5          1.2084   -0.6796   -0.0132 C.ar      1 <0>        -0.0116
      6 C6          0.0021   -0.0041    0.0020 C.ar      1 <0>        -0.1202
      7 C7         -1.2928   -0.7750    0.0108 C.3       1 <0>         0.1665
      8 N1         -1.7261   -1.0173   -1.3675 N.am      1 <0>        -0.5777
      9 C8         -2.5157   -0.2005   -2.0980 C.2       1 <0>         0.5154
     10 O1         -2.9980    0.8574   -1.7522 O.2       1 <0>        -0.4255
     11 C9         -2.6699   -0.8781   -3.4270 C.2       1 <0>         0.5098
     12 O2         -3.3034   -0.4842   -4.3835 O.2       1 <0>        -0.4158
     13 N2         -1.9543   -2.0198   -3.3335 N.am      1 <0>        -0.5351
     14 C10        -1.3985   -2.0851   -2.1129 C.2       1 <0>         0.7128
     15 O3         -0.6915   -2.9959   -1.7305 O.2       1 <0>        -0.4854
     16 C11        -1.8046   -3.0208   -4.3927 C.3       1 <0>         0.0460
     17 C12        -0.6029   -2.6829   -5.2370 C.2       1 <0>         0.4877
     18 O4          0.0665   -1.6973   -4.9779 O.co2     1 <0>        -0.6827
     19 O5         -0.3000   -3.3952   -6.1790 O.co2     1 <0>        -0.6808
     20 N3          3.6873   -0.6964   -0.0374 N.pl3     1 <0>         0.0332
     21 O6          3.7030   -1.9053   -0.0441 O.2       1 <0>        -0.1508
     22 O7          4.7263   -0.0784   -0.0445 O.3       1 <0>        -0.1388
     23 Cl1         3.8696    2.2984   -0.0231 Cl        1 <0>        -0.0057
     24 H1         -0.9592    1.9051    0.0260 H         1 <0>         0.1573
     25 H2          1.1560    3.1655    0.0077 H         1 <0>         0.1600
     26 H3          1.2224   -1.7595   -0.0195 H         1 <0>         0.1693
     27 H4         -1.1447   -1.7283    0.5180 H         1 <0>         0.1204
     28 H5         -2.0551   -0.1989    0.5353 H         1 <0>         0.1200
     29 H6         -1.6691   -4.0055   -3.9454 H         1 <0>         0.1024
     30 H7         -2.6979   -3.0252   -5.0173 H         1 <0>         0.1008
@<TRIPOS>BOND
     1    1    6 ar
     2    1    2 ar
     3    1   24 1
     4    2    3 ar
     5    2   25 1
     6    3    4 ar
     7    3   23 1
     8    4    5 ar
     9    4   20 1
    10    5    6 ar
    11    5   26 1
    12    6    7 1
    13    7    8 1
    14    7   27 1
    15    7   28 1
    16    8   14 am
    17    8    9 am
    18    9   10 2
    19    9   11 1
    20   11   12 2
    21   11   13 am
    22   13   14 am
    23   13   16 1
    24   14   15 2
    25   16   17 1
    26   16   29 1
    27   16   30 1
    28   17   18 2
    29   17   19 1
    30   20   21 2
    31   20   22 1
@<TRIPOS>MOLECULE
CHEMBL143569
   37    40     0     0     0
SMALL
USER_CHARGES

@<TRIPOS>ATOM
      1 C1         -0.0165    1.3627    0.0095 C.ar      1 <0>        -0.0923
      2 C2          1.1654    2.0924    0.0022 C.ar      1 <0>        -0.1277
      3 C3          2.3861    1.4540   -0.0134 C.ar      1 <0>        -0.0562
      4 C4          2.4294    0.0605   -0.0213 C.ar      1 <0>        -0.1341
      5 C5          1.2244   -0.6786   -0.0133 C.ar      1 <0>        -0.0435
      6 C6          0.0021   -0.0041    0.0020 C.ar      1 <0>        -0.1007
      7 C7          1.3000   -2.1396   -0.0224 C.2       1 <0>         0.1244
      8 N1          2.4575   -2.7306   -0.0371 N.2       1 <0>        -0.1268
      9 N2          3.6626   -2.0276   -0.0452 N.am      1 <0>        -0.4389
     10 C8          3.6977   -0.6787   -0.0384 C.2       1 <0>         0.5180
     11 O1          4.7616   -0.0856   -0.0461 O.2       1 <0>        -0.5385
     12 C9          4.9232   -2.7737   -0.0618 C.3       1 <0>         0.2199
     13 C10         5.3696   -3.0372    1.3533 C.2       1 <0>        -0.2328
     14 C11         5.0676   -4.1377    2.1579 C.ar      1 <0>        -0.1243
     15 C12         4.2673   -5.2689    1.8304 C.ar      1 <0>        -0.0304
     16 C13         4.0771   -6.2530    2.7382 C.ar      1 <0>        -0.1452
     17 C14         4.6519   -6.1910    4.0090 C.ar      1 <0>        -0.0661
     18 C15         5.4224   -5.1471    4.3878 C.ar      1 <0>        -0.1232
     19 C16         5.6700   -4.0710    3.4858 C.ar      1 <0>         0.1196
     20 N3          6.4044   -2.9833    3.7180 N.2       1 <0>        -0.5066
     21 S1          6.3463   -2.0822    2.3179 S.3       1 <0>         0.4289
     22 C17         0.0356   -2.9595   -0.0143 C.3       1 <0>        -0.1334
     23 C18         0.3870   -4.4249   -0.0262 C.2       1 <0>         0.4919
     24 O2          1.5559   -4.7714   -0.0401 O.co2     1 <0>        -0.6515
     25 O3         -0.4975   -5.2640   -0.0221 O.co2     1 <0>        -0.7039
     26 H1         -0.9631    1.8823    0.0259 H         1 <0>         0.1300
     27 H2          1.1269    3.1717    0.0083 H         1 <0>         0.1299
     28 H3          3.3010    2.0277   -0.0197 H         1 <0>         0.1381
     29 H4         -0.9242   -0.5594    0.0075 H         1 <0>         0.1400
     30 H5          4.7775   -3.7219   -0.5793 H         1 <0>         0.1192
     31 H6          5.6841   -2.1901   -0.5800 H         1 <0>         0.1094
     32 H7          3.8106   -5.3410    0.8543 H         1 <0>         0.1546
     33 H8          3.4674   -7.1046    2.4748 H         1 <0>         0.1285
     34 H9          4.4764   -6.9966    4.7065 H         1 <0>         0.1262
     35 H10         5.8525   -5.1280    5.3783 H         1 <0>         0.1272
     36 H11        -0.5398   -2.7311    0.8829 H         1 <0>         0.0847
     37 H12        -0.5578   -2.7210   -0.8970 H         1 <0>         0.0857
@<TRIPOS>BOND
     1    1    6 ar
     2    1    2 ar
     3    1   26 1
     4    2    3 ar
     5    2   27 1
     6    3    4 ar
     7    3   28 1
     8    4   10 1
     9    4    5 ar
    10    5    6 ar
    11    5    7 1
    12    6   29 1
    13    7    8 2
    14    7   22 1
    15    8    9 1
    16    9   10 am
    17    9   12 1
    18   10   11 2
    19   12   13 1
    20   12   30 1
    21   12   31 1
    22   13   21 1
    23   13   14 2
    24   14   19 ar
    25   14   15 ar
    26   15   16 ar
    27   15   32 1
    28   16   17 ar
    29   16   33 1
    30   17   18 ar
    31   17   34 1
    32   18   19 ar
    33   18   35 1
    34   19   20 2
    35   20   21 1
    36   22   23 1
    37   22   36 1
    38   22   37 1
    39   23   24 2
    40   23   25 1
@<TRIPOS>MOLECULE
CHEMBL142879
   38    41     0     0     0
SMALL
USER_CHARGES

@<TRIPOS>ATOM
      1 C1         -0.0165    1.3627    0.0095 C.ar      1 <0>        -0.0929
      2 C2          1.1654    2.0924    0.0022 C.ar      1 <0>        -0.1281
      3 C3          2.3861    1.4540   -0.0134 C.ar      1 <0>        -0.0563
      4 C4          2.4294    0.0605   -0.0213 C.ar      1 <0>        -0.1332
      5 C5          1.2244   -0.6786   -0.0133 C.ar      1 <0>        -0.0430
      6 C6          0.0021   -0.0041    0.0020 C.ar      1 <0>        -0.1008
      7 C7          1.3000   -2.1396   -0.0224 C.2       1 <0>         0.1235
      8 N1          2.4575   -2.7306   -0.0371 N.2       1 <0>        -0.1280
      9 N2          3.6626   -2.0276   -0.0452 N.am      1 <0>        -0.4397
     10 C8          3.6977   -0.6787   -0.0384 C.2       1 <0>         0.5194
     11 O1          4.7616   -0.0856   -0.0461 O.2       1 <0>        -0.5370
     12 C9          4.9232   -2.7737   -0.0618 C.3       1 <0>         0.2174
     13 C10         5.3696   -3.0372    1.3533 C.2       1 <0>        -0.1325
     14 C11         5.0835   -4.0910    2.1310 C.2       1 <0>        -0.1085
     15 C12         5.6234   -4.1478    3.4816 C.ar      1 <0>        -0.0787
     16 C13         6.4230   -3.0420    3.8428 C.ar      1 <0>        -0.1110
     17 S1          6.4099   -2.0255    2.3885 S.3       1 <0>         0.0541
     18 C14         7.0119   -2.9359    5.0845 C.ar      1 <0>        -0.0769
     19 C15         6.8236   -3.9355    6.0181 C.ar      1 <0>        -0.0892
     20 C16         6.0425   -5.0364    5.6939 C.ar      1 <0>        -0.1210
     21 C17         5.4517   -5.1542    4.4625 C.ar      1 <0>         0.0087
     22 Cl1         4.4831   -6.5493    4.1032 Cl        1 <0>        -0.0535
     23 C18         0.0356   -2.9595   -0.0143 C.3       1 <0>        -0.1329
     24 C19         0.3870   -4.4249   -0.0262 C.2       1 <0>         0.4903
     25 O2          1.5559   -4.7714   -0.0401 O.co2     1 <0>        -0.6527
     26 O3         -0.4975   -5.2640   -0.0221 O.co2     1 <0>        -0.7044
     27 H1         -0.9631    1.8823    0.0259 H         1 <0>         0.1297
     28 H2          1.1269    3.1717    0.0083 H         1 <0>         0.1295
     29 H3          3.3010    2.0277   -0.0197 H         1 <0>         0.1374
     30 H4         -0.9242   -0.5594    0.0075 H         1 <0>         0.1399
     31 H5          4.7775   -3.7219   -0.5793 H         1 <0>         0.1237
     32 H6          5.6841   -2.1901   -0.5800 H         1 <0>         0.1082
     33 H7          4.4586   -4.8896    1.7594 H         1 <0>         0.1551
     34 H8          7.6179   -2.0752    5.3259 H         1 <0>         0.1345
     35 H9          7.2811   -3.8616    6.9936 H         1 <0>         0.1408
     36 H10         5.8978   -5.8164    6.4267 H         1 <0>         0.1366
     37 H11        -0.5398   -2.7311    0.8829 H         1 <0>         0.0854
     38 H12        -0.5578   -2.7210   -0.8970 H         1 <0>         0.0862
@<TRIPOS>BOND
     1    1    6 ar
     2    1    2 ar
     3    1   27 1
     4    2    3 ar
     5    2   28 1
     6    3    4 ar
     7    3   29 1
     8    4   10 1
     9    4    5 ar
    10    5    6 ar
    11    5    7 1
    12    6   30 1
    13    7    8 2
    14    7   23 1
    15    8    9 1
    16    9   10 am
    17    9   12 1
    18   10   11 2
    19   12   13 1
    20   12   31 1
    21   12   32 1
    22   13   17 1
    23   13   14 2
    24   14   15 1
    25   14   33 1
    26   15   21 ar
    27   15   16 ar
    28   16   17 1
    29   16   18 ar
    30   18   19 ar
    31   18   34 1
    32   19   20 ar
    33   19   35 1
    34   20   21 ar
    35   20   36 1
    36   21   22 1
    37   23   24 1
    38   23   37 1
    39   23   38 1
    40   24   25 2
    41   24   26 1
@<TRIPOS>MOLECULE
CHEMBL209689
   45    48     0     0     0
SMALL
USER_CHARGES

@<TRIPOS>ATOM
      1 C1         -0.0184    1.5028    0.0103 C.3       1 <0>        -0.1022
      2 C2          0.0021   -0.0041    0.0020 C.ar      1 <0>        -0.1199
      3 C3          0.0057   -0.6864   -1.2063 C.ar      1 <0>        -0.1107
      4 C4          0.0247   -2.0637   -1.2349 C.ar      1 <0>        -0.1097
      5 C5          0.0405   -2.7797   -0.0418 C.ar      1 <0>         0.1080
      6 C6          0.0367   -2.0826    1.1779 C.ar      1 <0>        -0.0768
      7 C7          0.0226   -0.6892    1.1850 C.ar      1 <0>        -0.0786
      8 C8          0.0562   -3.1107    2.2323 C.2       1 <0>        -0.1960
      9 C9          0.0699   -4.3143    1.6010 C.2       1 <0>         0.1401
     10 N1          0.0607   -4.1263    0.2522 N.pl3     1 <0>        -0.4290
     11 C10         0.0704   -5.2010   -0.7434 C.3       1 <0>         0.0280
     12 C11         1.4943   -5.5503   -1.0917 C.2       1 <0>         0.4825
     13 O1          2.4157   -4.9565   -0.5578 O.co2     1 <0>        -0.6698
     14 O2          1.7250   -6.4266   -1.9074 O.co2     1 <0>        -0.6904
     15 C12         0.0926   -5.6545    2.2896 C.3       1 <0>        -0.0963
     16 C13         0.0605   -2.8791    3.6911 C.ar      1 <0>         0.0906
     17 C14        -1.1286   -2.7884    4.4081 C.ar      1 <0>        -0.1794
     18 C15        -1.0885   -2.5707    5.7777 C.ar      1 <0>         0.1301
     19 N2          0.0453   -2.4455    6.4277 N.ar      1 <0>        -0.4853
     20 C16         1.2268   -2.5213    5.8052 C.ar      1 <0>         0.1317
     21 C17         1.2776   -2.7475    4.4090 C.ar      1 <0>        -0.0912
     22 C18         2.5176   -2.8310    3.7635 C.ar      1 <0>        -0.0772
     23 C19         3.6648   -2.6990    4.4878 C.ar      1 <0>        -0.1242
     24 C20         3.6193   -2.4820    5.8626 C.ar      1 <0>        -0.1018
     25 C21         2.4304   -2.3842    6.5186 C.ar      1 <0>        -0.0754
     26 C22         2.4048   -2.1480    8.0068 C.3       1 <0>        -0.1019
     27 H1          1.0042    1.8801    0.0026 H         1 <0>         0.0619
     28 H2         -0.5455    1.8639   -0.8728 H         1 <0>         0.0596
     29 H3         -0.5286    1.8543    0.9071 H         1 <0>         0.0584
     30 H4         -0.0069   -0.1324   -2.1334 H         1 <0>         0.1187
     31 H5          0.0271   -2.5860   -2.1802 H         1 <0>         0.1161
     32 H6          0.0242   -0.1522    2.1221 H         1 <0>         0.1110
     33 H7         -0.4296   -6.0792   -0.3349 H         1 <0>         0.0870
     34 H8         -0.4524   -4.8698   -1.6406 H         1 <0>         0.0860
     35 H9         -0.9294   -5.9923    2.4612 H         1 <0>         0.0747
     36 H10         0.6134   -6.3771    1.6612 H         1 <0>         0.0763
     37 H11         0.6104   -5.5636    3.2445 H         1 <0>         0.0782
     38 H12        -2.0772   -2.8866    3.9013 H         1 <0>         0.1343
     39 H13        -2.0170   -2.5019    6.3251 H         1 <0>         0.1544
     40 H14         2.5647   -2.9995    2.6978 H         1 <0>         0.1363
     41 H15         4.6207   -2.7639    3.9893 H         1 <0>         0.1255
     42 H16         4.5415   -2.3805    6.4155 H         1 <0>         0.1246
     43 H17         2.4186   -3.1058    8.5269 H         1 <0>         0.0664
     44 H18         3.2784   -1.5642    8.2970 H         1 <0>         0.0603
     45 H19         1.4990   -1.6032    8.2727 H         1 <0>         0.0748
@<TRIPOS>BOND
     1    1    2 1
     2    1   27 1
     3    1   28 1
     4    1   29 1
     5    2    7 ar
     6    2    3 ar
     7    3    4 ar
     8    3   30 1
     9    4    5 ar
    10    4   31 1
    11    5   10 1
    12    5    6 ar
    13    6    7 ar
    14    6    8 1
    15    7   32 1
    16    8    9 2
    17    8   16 1
    18    9   10 1
    19    9   15 1
    20   10   11 1
    21   11   12 1
    22   11   33 1
    23   11   34 1
    24   12   13 2
    25   12   14 1
    26   15   35 1
    27   15   36 1
    28   15   37 1
    29   16   21 ar
    30   16   17 ar
    31   17   18 ar
    32   17   38 1
    33   18   19 ar
    34   18   39 1
    35   19   20 ar
    36   20   25 ar
    37   20   21 ar
    38   21   22 ar
    39   22   23 ar
    40   22   40 1
    41   23   24 ar
    42   23   41 1
    43   24   25 ar
    44   24   42 1
    45   25   26 1
    46   26   43 1
    47   26   44 1
    48   26   45 1
